/*--------------------------------*- C++ -*----------------------------------*\
| =========                 |                                                 |
| \\      /  F ield         | OpenFOAM: The Open Source CFD Toolbox           |
|  \\    /   O peration     | Version:  2.3.x                                 |
|   \\  /    A nd           | Web:      www.OpenFOAM.org                      |
|    \\/     M anipulation  |                                                 |
\*---------------------------------------------------------------------------*/
FoamFile
{
    version     2.0;
    format      binary;
    class       polyBoundaryMesh;
    location    "constant/polyMesh";
    object      boundary;
}
// * * * * * * * * * * * * * * * * * * * * * * * * * * * * * * * * * * * * * //

6
(
    topAndBottom
    {
        type            patch;
        nFaces          240;
        startFace       36336;
    }
    inlet
    {
        type            patch;
        nFaces          120;
        startFace       36576;
    }
    outlet
    {
        type            patch;
        nFaces          120;
        startFace       36696;
    }
    outerCylinder
    {
        type            patch;
        nFaces          304;
        startFace       36816;
    }
    front
    {
        type            empty;
        inGroups        1(empty);
        nFaces          18279;
        startFace       37120;
    }
    back
    {
        type            empty;
        inGroups        1(empty);
        nFaces          18279;
        startFace       55399;
    }
)

// ************************************************************************* //
