/*--------------------------------*- C++ -*----------------------------------*\
| =========                 |                                                 |
| \\      /  F ield         | OpenFOAM: The Open Source CFD Toolbox           |
|  \\    /   O peration     | Version:  2.3.x                                 |
|   \\  /    A nd           | Web:      www.OpenFOAM.org                      |
|    \\/     M anipulation  |                                                 |
\*---------------------------------------------------------------------------*/
FoamFile
{
    version     2.0;
    format      binary;
    class       polyBoundaryMesh;
    location    "constant/polyMesh";
    object      boundary;
}
// * * * * * * * * * * * * * * * * * * * * * * * * * * * * * * * * * * * * * //

6
(
    topAndBottom
    {
        type            patch;
        nFaces          200;
        startFace       88212;
    }
    inlet
    {
        type            patch;
        nFaces          100;
        startFace       88412;
    }
    outlet
    {
        type            patch;
        nFaces          100;
        startFace       88512;
    }
    symFront
    {
        type            symmetryPlane;
        inGroups        1(symmetryPlane);
        nFaces          13543;
        startFace       88612;
    }
    symBack
    {
        type            symmetryPlane;
        inGroups        1(symmetryPlane);
        nFaces          13543;
        startFace       102155;
    }
    outercylinder
    {
        type            wall;
        inGroups        1(wall);
        nFaces          2016;
        startFace       115698;
    }
)

// ************************************************************************* //
