/*--------------------------------*- C++ -*----------------------------------*\
| =========                 |                                                 |
| \\      /  F ield         | OpenFOAM: The Open Source CFD Toolbox           |
|  \\    /   O peration     | Version:  2.3.x                                 |
|   \\  /    A nd           | Web:      www.OpenFOAM.org                      |
|    \\/     M anipulation  |                                                 |
\*---------------------------------------------------------------------------*/
FoamFile
{
    version     2.0;
    format      ascii;
    class       polyBoundaryMesh;
    location    "constant/polyMesh";
    object      boundary;
}
// * * * * * * * * * * * * * * * * * * * * * * * * * * * * * * * * * * * * * //

4
(
    innerCylinder
    {
        type            patch;
        nFaces          300;
        startFace       7809;
    }
    wing
    {
        type            wall;
        inGroups        1(wall);
        nFaces          50;
        startFace       8109;
    }
    front
    {
        type            empty;
        inGroups        1(empty);
        nFaces          3925;
        startFace       8159;
    }
    back
    {
        type            empty;
        inGroups        1(empty);
        nFaces          3925;
        startFace       12084;
    }
)

// ************************************************************************* //
