/*--------------------------------*- C++ -*----------------------------------*\
| =========                 |                                                 |
| \\      /  F ield         | OpenFOAM: The Open Source CFD Toolbox           |
|  \\    /   O peration     | Version:  2.3.x                                 |
|   \\  /    A nd           | Web:      www.OpenFOAM.org                      |
|    \\/     M anipulation  |                                                 |
\*---------------------------------------------------------------------------*/
FoamFile
{
    version     2.0;
    format      ascii;
    class       polyBoundaryMesh;
    location    "constant/polyMesh";
    object      boundary;
}
// * * * * * * * * * * * * * * * * * * * * * * * * * * * * * * * * * * * * * //

7
(
    topAndBottom
    {
        type            patch;
        nFaces          0;
        startFace       85643;
    }
    inlet
    {
        type            patch;
        nFaces          0;
        startFace       85643;
    }
    outlet
    {
        type            patch;
        nFaces          0;
        startFace       85643;
    }
    symFront
    {
        type            symmetryPlane;
        inGroups        1(symmetryPlane);
        nFaces          3700;
        startFace       85643;
    }
    symBack
    {
        type            symmetryPlane;
        inGroups        1(symmetryPlane);
        nFaces          3706;
        startFace       89343;
    }
    innercylinder
    {
        type            wall;
        inGroups        1(wall);
        nFaces          1984;
        startFace       93049;
    }
    wing
    {
        type            wall;
        inGroups        1(wall);
        nFaces          672;
        startFace       95033;
    }
)

// ************************************************************************* //
