/*--------------------------------*- C++ -*----------------------------------*\
| =========                 |                                                 |
| \\      /  F ield         | OpenFOAM: The Open Source CFD Toolbox           |
|  \\    /   O peration     | Version:  2.3.x                                 |
|   \\  /    A nd           | Web:      www.OpenFOAM.org                      |
|    \\/     M anipulation  |                                                 |
\*---------------------------------------------------------------------------*/
FoamFile
{
    version     2.0;
    format      ascii;
    class       extendedFeatureEdgeMesh;
    location    "constant/extendedFeatureEdgeMesh";
    object      AMIinterface_scaledfine.extendedFeatureEdgeMesh;
}
// * * * * * * * * * * * * * * * * * * * * * * * * * * * * * * * * * * * * * //

// points

124
(
(-2 0 0.5)
(-1.98974 0.202337 0.5)
(-2 0 -0.5)
(-1.98974 -0.202337 -0.5)
(-1.98974 -0.202337 0.5)
(-1.95906 -0.402597 -0.5)
(-1.95906 -0.402597 0.5)
(-1.90828 -0.598726 -0.5)
(-1.90828 -0.598726 0.5)
(-1.83792 -0.788712 -0.5)
(-1.83792 -0.788712 0.5)
(-1.74869 -0.970604 -0.5)
(-1.74869 -0.970604 0.5)
(-1.64153 -1.14254 -0.5)
(-1.64153 -1.14254 0.5)
(-1.51752 -1.30274 -0.5)
(-1.51752 -1.30274 0.5)
(-1.37793 -1.44959 -0.5)
(-1.37793 -1.44959 0.5)
(-1.22421 -1.58155 -0.5)
(-1.22421 -1.58155 0.5)
(-1.05793 -1.69729 -0.5)
(-1.05793 -1.69729 0.5)
(-0.880788 -1.79561 -0.5)
(-0.880788 -1.79561 0.5)
(-0.69461 -1.8755 -0.5)
(-0.69461 -1.8755 0.5)
(-0.501305 -1.93615 -0.5)
(-0.501305 -1.93615 0.5)
(-0.302856 -1.97694 -0.5)
(-0.302856 -1.97694 0.5)
(-0.101298 -1.99743 -0.5)
(-0.101298 -1.99743 0.5)
(0.101298 -1.99743 -0.5)
(0.101298 -1.99743 0.5)
(0.302856 -1.97694 -0.5)
(0.302856 -1.97694 0.5)
(0.501305 -1.93615 -0.5)
(0.501305 -1.93615 0.5)
(0.69461 -1.8755 -0.5)
(0.69461 -1.8755 0.5)
(0.880788 -1.79561 -0.5)
(0.880788 -1.79561 0.5)
(1.05793 -1.69729 -0.5)
(1.05793 -1.69729 0.5)
(1.22421 -1.58155 -0.5)
(1.22421 -1.58155 0.5)
(1.37793 -1.44959 -0.5)
(1.37793 -1.44959 0.5)
(1.51752 -1.30274 -0.5)
(1.51752 -1.30274 0.5)
(1.64153 -1.14254 -0.5)
(1.64153 -1.14254 0.5)
(1.74869 -0.970604 -0.5)
(1.74869 -0.970604 0.5)
(1.83792 -0.788712 -0.5)
(1.83792 -0.788712 0.5)
(1.90828 -0.598726 -0.5)
(1.90828 -0.598726 0.5)
(1.95906 -0.402597 -0.5)
(1.95906 -0.402597 0.5)
(1.98974 -0.202337 -0.5)
(1.98974 -0.202337 0.5)
(2 7.34788e-16 -0.5)
(2 2.44929e-16 0.5)
(1.98974 0.202337 -0.5)
(1.98974 0.202337 0.5)
(1.95906 0.402597 -0.5)
(1.95906 0.402597 0.5)
(1.90828 0.598726 -0.5)
(1.90828 0.598726 0.5)
(1.83792 0.788712 -0.5)
(1.83792 0.788712 0.5)
(1.74869 0.970604 -0.5)
(1.74869 0.970604 0.5)
(1.64153 1.14254 -0.5)
(1.64153 1.14254 0.5)
(1.51752 1.30274 -0.5)
(1.51752 1.30274 0.5)
(1.37793 1.44959 -0.5)
(1.37793 1.44959 0.5)
(1.22421 1.58155 -0.5)
(1.22421 1.58155 0.5)
(1.05793 1.69729 -0.5)
(1.05793 1.69729 0.5)
(0.880788 1.79561 -0.5)
(0.880788 1.79561 0.5)
(0.69461 1.8755 -0.5)
(0.69461 1.8755 0.5)
(0.501305 1.93615 -0.5)
(0.501305 1.93615 0.5)
(0.302856 1.97694 -0.5)
(0.302856 1.97694 0.5)
(0.101298 1.99743 -0.5)
(0.101298 1.99743 0.5)
(-0.101298 1.99743 -0.5)
(-0.101298 1.99743 0.5)
(-0.302856 1.97694 -0.5)
(-0.302856 1.97694 0.5)
(-0.501305 1.93615 -0.5)
(-0.501305 1.93615 0.5)
(-0.69461 1.8755 -0.5)
(-0.69461 1.8755 0.5)
(-0.880788 1.79561 -0.5)
(-0.880788 1.79561 0.5)
(-1.05793 1.69729 -0.5)
(-1.05793 1.69729 0.5)
(-1.22421 1.58155 -0.5)
(-1.22421 1.58155 0.5)
(-1.37793 1.44959 -0.5)
(-1.37793 1.44959 0.5)
(-1.51752 1.30274 -0.5)
(-1.51752 1.30274 0.5)
(-1.64153 1.14254 -0.5)
(-1.64153 1.14254 0.5)
(-1.74869 0.970604 -0.5)
(-1.74869 0.970604 0.5)
(-1.83792 0.788712 -0.5)
(-1.83792 0.788712 0.5)
(-1.90828 0.598726 -0.5)
(-1.90828 0.598726 0.5)
(-1.95906 0.402597 -0.5)
(-1.95906 0.402597 0.5)
(-1.98974 0.202337 -0.5)
)

// edges

124
(
(0 1)
(2 3)
(4 0)
(3 5)
(6 4)
(5 7)
(8 6)
(7 9)
(10 8)
(9 11)
(12 10)
(11 13)
(14 12)
(13 15)
(16 14)
(15 17)
(18 16)
(17 19)
(20 18)
(19 21)
(22 20)
(21 23)
(24 22)
(23 25)
(26 24)
(25 27)
(28 26)
(27 29)
(30 28)
(29 31)
(32 30)
(31 33)
(34 32)
(33 35)
(36 34)
(35 37)
(38 36)
(37 39)
(40 38)
(39 41)
(42 40)
(41 43)
(44 42)
(43 45)
(46 44)
(45 47)
(48 46)
(47 49)
(50 48)
(49 51)
(52 50)
(51 53)
(54 52)
(53 55)
(56 54)
(55 57)
(58 56)
(57 59)
(60 58)
(59 61)
(62 60)
(61 63)
(64 62)
(63 65)
(66 64)
(65 67)
(68 66)
(67 69)
(70 68)
(69 71)
(72 70)
(71 73)
(74 72)
(73 75)
(76 74)
(75 77)
(78 76)
(77 79)
(80 78)
(79 81)
(82 80)
(81 83)
(84 82)
(83 85)
(86 84)
(85 87)
(88 86)
(87 89)
(90 88)
(89 91)
(92 90)
(91 93)
(94 92)
(93 95)
(96 94)
(95 97)
(98 96)
(97 99)
(100 98)
(99 101)
(102 100)
(101 103)
(104 102)
(103 105)
(106 104)
(105 107)
(108 106)
(107 109)
(110 108)
(109 111)
(112 110)
(111 113)
(114 112)
(113 115)
(116 114)
(115 117)
(118 116)
(117 119)
(120 118)
(119 121)
(122 120)
(121 123)
(1 122)
(123 2)
)

// concaveStart mixedStart nonFeatureStart
0 0 0
// internalStart flatStart openStart multipleStart
124 124 124 124
// normals

218
(
(-0.998717 0.0506423 0)
(0 0 1)
(-0.998717 -0.0506423 -0)
(0 0 -1)
(-0.998717 -0.0506423 0)
(0 0 1)
(-0.988467 -0.151434 -0)
(0 0 -1)
(-0.988467 -0.151434 0)
(-0.968079 -0.250646 -0)
(0 0 -1)
(-0.968079 -0.250646 0)
(0 0 1)
(-0.937757 -0.347292 -0)
(-0.937757 -0.347292 0)
(0 0 1)
(-0.89779 -0.440425 -0)
(0 0 -1)
(-0.89779 -0.440425 0)
(0 0 1)
(-0.848663 -0.528934 -0)
(-0.848663 -0.528934 0)
(-0.790761 -0.612125 -0)
(0 0 -1)
(-0.790761 -0.612125 0)
(0 -0 1)
(-0.724796 -0.688963 -0)
(0 0 -1)
(-0.724796 -0.688963 0)
(-0 -0 1)
(-0.65136 -0.758769 -0)
(-0.65136 -0.758769 0)
(-0.571287 -0.82075 -0)
(0 0 -1)
(-0.571287 -0.82075 0)
(-0 -0 1)
(-0.485295 -0.87435 -0)
(0 0 -1)
(-0.485295 -0.87435 0)
(-0 -0 1)
(-0.394334 -0.918967 -0)
(-0.394334 -0.918967 0)
(-0 -0 1)
(-0.299364 -0.954139 -0)
(0 0 -1)
(-0.299364 -0.954139 0)
(-0 -0 1)
(-0.201335 -0.979522 -0)
(0 0 -1)
(-0.201335 -0.979522 0)
(-0.101136 -0.994873 -0)
(0 0 -1)
(-0.101136 -0.994873 0)
(0 0 1)
(0 -1 0)
(0 0 -1)
(0 -1 0)
(0 0 1)
(0.101136 -0.994873 0)
(0 0 -1)
(0.101136 -0.994873 0)
(0 0 1)
(0.201335 -0.979522 0)
(-0 0 -1)
(0.201335 -0.979522 0)
(0 0 1)
(0.299364 -0.954139 0)
(-0 0 -1)
(0.299364 -0.954139 0)
(0 0 1)
(0.394334 -0.918967 0)
(0.394334 -0.918967 0)
(0 -0 1)
(0.485295 -0.87435 0)
(0 0 -1)
(0.485295 -0.87435 0)
(0 0 1)
(0.571287 -0.82075 0)
(0 0 -1)
(0.571287 -0.82075 0)
(-0 0 1)
(0.65136 -0.758769 0)
(0 0 -1)
(0.65136 -0.758769 0)
(0 0 1)
(0.724796 -0.688963 0)
(0 0 -1)
(0.724796 -0.688963 0)
(0 0 1)
(0.790761 -0.612125 0)
(-0 0 -1)
(0.790761 -0.612125 0)
(0 -0 1)
(0.848663 -0.528934 0)
(0 0 -1)
(0.848663 -0.528934 0)
(0.89779 -0.440425 0)
(0 0 -1)
(0.89779 -0.440425 0)
(0 0 1)
(0.937757 -0.347292 0)
(0 0 -1)
(0.937757 -0.347292 0)
(0 -0 1)
(0.968079 -0.250646 0)
(0.968079 -0.250646 0)
(0.988467 -0.151434 0)
(-0 0 -1)
(0.988467 -0.151434 0)
(0 -0 1)
(0.998717 -0.0506423 0)
(0.998717 -0.0506423 -2.35467e-17)
(0.998717 0.0506423 2.48076e-17)
(0 0 -1)
(0.998717 0.0506423 0)
(0 0 1)
(0.988467 0.151434 0)
(0 0 -1)
(0.988467 0.151434 0)
(0 0 1)
(0.968079 0.250646 0)
(-0 -0 -1)
(0.968079 0.250646 0)
(0 0 1)
(0.937757 0.347292 0)
(0.937757 0.347292 0)
(0.89779 0.440425 0)
(-0 -0 -1)
(0.89779 0.440425 0)
(0 0 1)
(0.848663 0.528934 0)
(-0 -0 -1)
(0.848663 0.528934 0)
(0 0 1)
(0.790761 0.612125 0)
(0 0 -1)
(0.790761 0.612125 0)
(0 0 1)
(0.724796 0.688963 0)
(0 0 -1)
(0.724796 0.688963 0)
(0.65136 0.758769 0)
(-0 -0 -1)
(0.65136 0.758769 0)
(0 0 1)
(0.571287 0.82075 0)
(0.571287 0.82075 0)
(0 0 1)
(0.485295 0.87435 0)
(-0 -0 -1)
(0.485295 0.87435 0)
(0 0 1)
(0.394334 0.918967 0)
(-0 -0 -1)
(0.394334 0.918967 0)
(0 0 1)
(0.299364 0.954139 0)
(0 0 -1)
(0.299364 0.954139 0)
(0.201335 0.979522 0)
(0 0 -1)
(0.201335 0.979522 0)
(0 0 1)
(0.101136 0.994873 0)
(0 0 -1)
(0.101136 0.994873 0)
(0 1 0)
(0 -0 -1)
(0 1 0)
(-0 0 1)
(-0.101136 0.994873 0)
(-0.101136 0.994873 0)
(-0.201335 0.979522 0)
(0 -0 -1)
(-0.201335 0.979522 0)
(0 0 1)
(-0.299364 0.954139 0)
(0 0 -1)
(-0.299364 0.954139 0)
(0 0 1)
(-0.394334 0.918967 0)
(-0.394334 0.918967 0)
(-0.485295 0.87435 0)
(0 0 -1)
(-0.485295 0.87435 0)
(0 0 1)
(-0.571287 0.82075 0)
(0 0 -1)
(-0.571287 0.82075 0)
(-0.65136 0.758769 0)
(0 -0 -1)
(-0.65136 0.758769 0)
(0 0 1)
(-0.724796 0.688963 0)
(-0.724796 0.688963 0)
(0 0 1)
(-0.790761 0.612125 0)
(0 -0 -1)
(-0.790761 0.612125 0)
(0 0 1)
(-0.848663 0.528934 0)
(0 -0 -1)
(-0.848663 0.528934 0)
(-0.89779 0.440425 0)
(0 -0 -1)
(-0.89779 0.440425 0)
(0 0 1)
(-0.937757 0.347292 0)
(-0.937757 0.347292 0)
(-0 0 1)
(-0.968079 0.250646 0)
(0 -0 -1)
(-0.968079 0.250646 0)
(-0.988467 0.151434 0)
(0 -0 -1)
(-0.988467 0.151434 0)
(0 0 1)
(-0.998717 0.0506423 0)
)

// normal volume types

218
(
0
0
0
0
0
0
0
0
0
0
0
0
0
0
0
0
0
0
0
0
0
0
0
0
0
0
0
0
0
0
0
0
0
0
0
0
0
0
0
0
0
0
0
0
0
0
0
0
0
0
0
0
0
0
0
0
0
0
0
0
0
0
0
0
0
0
0
0
0
0
0
0
0
0
0
0
0
0
0
0
0
0
0
0
0
0
0
0
0
0
0
0
0
0
0
0
0
0
0
0
0
0
0
0
0
0
0
0
0
0
0
0
0
0
0
0
0
0
0
0
0
0
0
0
0
0
0
0
0
0
0
0
0
0
0
0
0
0
0
0
0
0
0
0
0
0
0
0
0
0
0
0
0
0
0
0
0
0
0
0
0
0
0
0
0
0
0
0
0
0
0
0
0
0
0
0
0
0
0
0
0
0
0
0
0
0
0
0
0
0
0
0
0
0
0
0
0
0
0
0
0
0
0
0
0
0
0
0
0
0
0
0
0
0
0
0
0
0
)

// normalDirections

124
(
2(1 -1)
2(1 -1)
2(1 -1)
2(1 -1)
2(1 -1)
2(1 -1)
2(1 -1)
2(1 -1)
2(1 -1)
2(1 -1)
2(1 -1)
2(1 -1)
2(1 -1)
2(1 -1)
2(1 -1)
2(1 -1)
2(1 -1)
2(1 -1)
2(1 -1)
2(1 -1)
2(1 -1)
2(1 -1)
2(1 -1)
2(1 -1)
2(1 -1)
2(1 -1)
2(1 -1)
2(1 -1)
2(1 -1)
2(1 -1)
2(1 -1)
2(1 -1)
2(1 -1)
2(1 -1)
2(1 -1)
2(1 -1)
2(1 -1)
2(1 -1)
2(1 -1)
2(1 -1)
2(1 -1)
2(1 -1)
2(1 -1)
2(1 -1)
2(1 -1)
2(1 -1)
2(1 -1)
2(1 -1)
2(1 -1)
2(1 -1)
2(1 -1)
2(1 -1)
2(1 -1)
2(1 -1)
2(1 -1)
2(1 -1)
2(1 -1)
2(1 -1)
2(1 -1)
2(1 -1)
2(1 -1)
2(1 -1)
2(1 -1)
2(1 -1)
2(1 -1)
2(1 -1)
2(1 -1)
2(1 -1)
2(1 -1)
2(1 -1)
2(1 -1)
2(1 -1)
2(1 -1)
2(1 -1)
2(1 -1)
2(1 -1)
2(1 -1)
2(1 -1)
2(1 -1)
2(1 -1)
2(1 -1)
2(1 -1)
2(1 -1)
2(1 -1)
2(1 -1)
2(1 -1)
2(1 -1)
2(1 -1)
2(1 -1)
2(1 -1)
2(1 -1)
2(1 -1)
2(1 -1)
2(1 -1)
2(1 -1)
2(1 -1)
2(1 -1)
2(1 -1)
2(1 -1)
2(1 -1)
2(1 -1)
2(1 -1)
2(1 -1)
2(1 -1)
2(1 -1)
2(1 -1)
2(1 -1)
2(1 -1)
2(1 -1)
2(1 -1)
2(1 -1)
2(1 -1)
2(1 -1)
2(1 -1)
2(1 -1)
2(1 -1)
2(1 -1)
2(1 -1)
2(1 -1)
2(1 -1)
2(1 -1)
2(1 -1)
2(1 -1)
2(1 -1)
)

// edgeNormals

124
(
2(0 1)
2(2 3)
2(4 5)
2(6 7)
2(8 5)
2(9 10)
2(11 12)
2(13 10)
2(14 15)
2(16 17)
2(18 19)
2(20 17)
2(21 19)
2(22 23)
2(24 25)
2(26 27)
2(28 29)
2(30 27)
2(31 29)
2(32 33)
2(34 35)
2(36 37)
2(38 39)
2(40 37)
2(41 42)
2(43 44)
2(45 46)
2(47 48)
2(49 46)
2(50 51)
2(52 53)
2(54 55)
2(56 57)
2(58 59)
2(60 61)
2(62 63)
2(64 65)
2(66 67)
2(68 69)
2(70 67)
2(71 72)
2(73 74)
2(75 76)
2(77 78)
2(79 80)
2(81 82)
2(83 84)
2(85 86)
2(87 88)
2(89 90)
2(91 92)
2(93 94)
2(95 92)
2(96 97)
2(98 99)
2(100 101)
2(102 103)
2(104 101)
2(105 103)
2(106 107)
2(108 109)
2(110 107)
2(111 109)
2(112 113)
2(114 115)
2(116 117)
2(118 119)
2(120 121)
2(122 123)
2(124 121)
2(125 123)
2(126 127)
2(128 129)
2(130 131)
2(132 133)
2(134 135)
2(136 137)
2(138 139)
2(140 137)
2(141 142)
2(143 144)
2(145 142)
2(146 147)
2(148 149)
2(150 151)
2(152 153)
2(154 155)
2(156 157)
2(158 155)
2(159 160)
2(161 162)
2(163 164)
2(165 162)
2(166 167)
2(168 169)
2(170 167)
2(171 169)
2(172 173)
2(174 175)
2(176 177)
2(178 179)
2(180 177)
2(181 179)
2(182 183)
2(184 185)
2(186 187)
2(188 185)
2(189 190)
2(191 192)
2(193 190)
2(194 195)
2(196 197)
2(198 199)
2(200 201)
2(202 199)
2(203 204)
2(205 206)
2(207 204)
2(208 209)
2(210 211)
2(212 209)
2(213 214)
2(215 216)
2(217 214)
)

// featurePointNormals
0()
// featurePointEdges
0()
// regionEdges
0()


// ************************************************************************* //
