/*--------------------------------*- C++ -*----------------------------------*\
| =========                 |                                                 |
| \\      /  F ield         | OpenFOAM: The Open Source CFD Toolbox           |
|  \\    /   O peration     | Version:  2.3.x                                 |
|   \\  /    A nd           | Web:      www.OpenFOAM.org                      |
|    \\/     M anipulation  |                                                 |
\*---------------------------------------------------------------------------*/
FoamFile
{
    version     2.0;
    format      ascii;
    class       extendedFeatureEdgeMesh;
    location    "constant/extendedFeatureEdgeMesh";
    object      NACA0015.extendedFeatureEdgeMesh;
}
// * * * * * * * * * * * * * * * * * * * * * * * * * * * * * * * * * * * * * //

// points

3996
(
(0.304667 -9.51322e-18 -0.5)
(0.304667 -9.51322e-18 0.5)
(-0.152333 0 -0.5)
(-0.152332 0.000159901 -0.5)
(-0.152332 -0.000159901 -0.5)
(-0.152329 0.000319589 -0.5)
(-0.152323 0.000479062 -0.5)
(-0.152315 0.00063832 -0.5)
(-0.152305 0.000797363 -0.5)
(-0.152293 0.00095619 -0.5)
(-0.152278 0.0011148 -0.5)
(-0.152261 0.0012732 -0.5)
(-0.152242 0.00143137 -0.5)
(-0.15222 0.00158933 -0.5)
(-0.152197 0.00174707 -0.5)
(-0.152171 0.00190459 -0.5)
(-0.152142 0.0020619 -0.5)
(-0.152112 0.00221898 -0.5)
(-0.152079 0.00237584 -0.5)
(-0.152044 0.00253248 -0.5)
(-0.152007 0.0026889 -0.5)
(-0.151967 0.0028451 -0.5)
(-0.151926 0.00300107 -0.5)
(-0.151882 0.00315682 -0.5)
(-0.151835 0.00331235 -0.5)
(-0.151787 0.00346765 -0.5)
(-0.151736 0.00362272 -0.5)
(-0.151683 0.00377757 -0.5)
(-0.151628 0.00393219 -0.5)
(-0.15157 0.00408658 -0.5)
(-0.15151 0.00424074 -0.5)
(-0.151448 0.00439467 -0.5)
(-0.151384 0.00454838 -0.5)
(-0.151317 0.00470185 -0.5)
(-0.151248 0.00485508 -0.5)
(-0.151177 0.00500809 -0.5)
(-0.151104 0.00516086 -0.5)
(-0.151028 0.00531339 -0.5)
(-0.150951 0.00546569 -0.5)
(-0.150871 0.00561776 -0.5)
(-0.150788 0.00576958 -0.5)
(-0.150704 0.00592117 -0.5)
(-0.150617 0.00607252 -0.5)
(-0.150528 0.00622362 -0.5)
(-0.150437 0.00637449 -0.5)
(-0.150343 0.00652511 -0.5)
(-0.150247 0.00667549 -0.5)
(-0.150149 0.00682562 -0.5)
(-0.150049 0.00697551 -0.5)
(-0.149947 0.00712515 -0.5)
(-0.149842 0.00727454 -0.5)
(-0.149735 0.00742369 -0.5)
(-0.149626 0.00757258 -0.5)
(-0.149514 0.00772122 -0.5)
(-0.149401 0.00786962 -0.5)
(-0.149285 0.00801775 -0.5)
(-0.149167 0.00816564 -0.5)
(-0.149047 0.00831326 -0.5)
(-0.148924 0.00846064 -0.5)
(-0.148799 0.00860775 -0.5)
(-0.148672 0.0087546 -0.5)
(-0.148543 0.00890119 -0.5)
(-0.148412 0.00904752 -0.5)
(-0.148278 0.00919359 -0.5)
(-0.148142 0.00933939 -0.5)
(-0.148004 0.00948493 -0.5)
(-0.147864 0.0096302 -0.5)
(-0.147721 0.00977521 -0.5)
(-0.147576 0.00991994 -0.5)
(-0.147429 0.0100644 -0.5)
(-0.14728 0.0102086 -0.5)
(-0.147129 0.0103525 -0.5)
(-0.146975 0.0104961 -0.5)
(-0.146819 0.0106395 -0.5)
(-0.146661 0.0107826 -0.5)
(-0.146501 0.0109254 -0.5)
(-0.146339 0.011068 -0.5)
(-0.146174 0.0112102 -0.5)
(-0.146007 0.0113522 -0.5)
(-0.145838 0.0114938 -0.5)
(-0.145667 0.0116352 -0.5)
(-0.145494 0.0117764 -0.5)
(-0.145318 0.0119172 -0.5)
(-0.14514 0.0120577 -0.5)
(-0.14496 0.0121979 -0.5)
(-0.144778 0.0123379 -0.5)
(-0.144594 0.0124775 -0.5)
(-0.144407 0.0126169 -0.5)
(-0.144219 0.0127559 -0.5)
(-0.144028 0.0128947 -0.5)
(-0.143835 0.0130331 -0.5)
(-0.143639 0.0131713 -0.5)
(-0.143442 0.0133092 -0.5)
(-0.143242 0.0134467 -0.5)
(-0.143041 0.0135839 -0.5)
(-0.142837 0.0137209 -0.5)
(-0.142631 0.0138575 -0.5)
(-0.142422 0.0139938 -0.5)
(-0.142212 0.0141298 -0.5)
(-0.141999 0.0142654 -0.5)
(-0.141785 0.0144008 -0.5)
(-0.141568 0.0145359 -0.5)
(-0.141349 0.0146706 -0.5)
(-0.141128 0.014805 -0.5)
(-0.140904 0.0149391 -0.5)
(-0.140679 0.0150728 -0.5)
(-0.140451 0.0152062 -0.5)
(-0.140221 0.0153393 -0.5)
(-0.139989 0.0154721 -0.5)
(-0.139755 0.0156046 -0.5)
(-0.139519 0.0157367 -0.5)
(-0.139281 0.0158684 -0.5)
(-0.13904 0.0159998 -0.5)
(-0.138798 0.016131 -0.5)
(-0.138553 0.0162617 -0.5)
(-0.138306 0.0163921 -0.5)
(-0.138057 0.0165222 -0.5)
(-0.137806 0.0166519 -0.5)
(-0.137553 0.0167813 -0.5)
(-0.137298 0.0169103 -0.5)
(-0.13704 0.017039 -0.5)
(-0.136781 0.0171673 -0.5)
(-0.136519 0.0172953 -0.5)
(-0.136256 0.0174229 -0.5)
(-0.13599 0.0175502 -0.5)
(-0.135722 0.0176771 -0.5)
(-0.135452 0.0178036 -0.5)
(-0.13518 0.0179298 -0.5)
(-0.134905 0.0180556 -0.5)
(-0.134629 0.0181811 -0.5)
(-0.134351 0.0183061 -0.5)
(-0.13407 0.0184309 -0.5)
(-0.133788 0.0185552 -0.5)
(-0.133503 0.0186792 -0.5)
(-0.133216 0.0188028 -0.5)
(-0.132928 0.018926 -0.5)
(-0.132637 0.0190488 -0.5)
(-0.132344 0.0191713 -0.5)
(-0.132049 0.0192933 -0.5)
(-0.131752 0.019415 -0.5)
(-0.131453 0.0195363 -0.5)
(-0.131152 0.0196573 -0.5)
(-0.130849 0.0197778 -0.5)
(-0.130543 0.0198979 -0.5)
(-0.130236 0.0200177 -0.5)
(-0.129927 0.020137 -0.5)
(-0.129616 0.020256 -0.5)
(-0.129302 0.0203745 -0.5)
(-0.128987 0.0204927 -0.5)
(-0.128669 0.0206104 -0.5)
(-0.12835 0.0207278 -0.5)
(-0.128028 0.0208447 -0.5)
(-0.127705 0.0209613 -0.5)
(-0.127379 0.0210774 -0.5)
(-0.127052 0.0211931 -0.5)
(-0.126722 0.0213084 -0.5)
(-0.126391 0.0214233 -0.5)
(-0.126057 0.0215378 -0.5)
(-0.125722 0.0216518 -0.5)
(-0.125384 0.0217655 -0.5)
(-0.125045 0.0218787 -0.5)
(-0.124703 0.0219915 -0.5)
(-0.12436 0.0221039 -0.5)
(-0.124014 0.0222158 -0.5)
(-0.123667 0.0223273 -0.5)
(-0.123317 0.0224384 -0.5)
(-0.122966 0.0225491 -0.5)
(-0.122612 0.0226593 -0.5)
(-0.122257 0.0227691 -0.5)
(-0.1219 0.0228784 -0.5)
(-0.12154 0.0229873 -0.5)
(-0.121179 0.0230958 -0.5)
(-0.120816 0.0232038 -0.5)
(-0.120451 0.0233114 -0.5)
(-0.120084 0.0234185 -0.5)
(-0.119715 0.0235252 -0.5)
(-0.119344 0.0236315 -0.5)
(-0.118971 0.0237372 -0.5)
(-0.118596 0.0238426 -0.5)
(-0.118219 0.0239475 -0.5)
(-0.11784 0.0240519 -0.5)
(-0.11746 0.0241559 -0.5)
(-0.117077 0.0242594 -0.5)
(-0.116693 0.0243624 -0.5)
(-0.116307 0.024465 -0.5)
(-0.115918 0.0245671 -0.5)
(-0.115528 0.0246688 -0.5)
(-0.115136 0.02477 -0.5)
(-0.114742 0.0248707 -0.5)
(-0.114347 0.0249709 -0.5)
(-0.113949 0.0250707 -0.5)
(-0.113549 0.02517 -0.5)
(-0.113148 0.0252688 -0.5)
(-0.112744 0.0253672 -0.5)
(-0.112339 0.025465 -0.5)
(-0.111932 0.0255624 -0.5)
(-0.111523 0.0256593 -0.5)
(-0.111113 0.0257558 -0.5)
(-0.1107 0.0258517 -0.5)
(-0.110285 0.0259471 -0.5)
(-0.109869 0.0260421 -0.5)
(-0.109451 0.0261366 -0.5)
(-0.109031 0.0262306 -0.5)
(-0.108609 0.0263241 -0.5)
(-0.108186 0.0264171 -0.5)
(-0.10776 0.0265095 -0.5)
(-0.107333 0.0266015 -0.5)
(-0.106904 0.026693 -0.5)
(-0.106473 0.0267841 -0.5)
(-0.10604 0.0268746 -0.5)
(-0.105606 0.0269646 -0.5)
(-0.105169 0.027054 -0.5)
(-0.104731 0.027143 -0.5)
(-0.104291 0.0272315 -0.5)
(-0.10385 0.0273195 -0.5)
(-0.103406 0.027407 -0.5)
(-0.102961 0.0274939 -0.5)
(-0.102514 0.0275804 -0.5)
(-0.102065 0.0276663 -0.5)
(-0.101615 0.0277517 -0.5)
(-0.101162 0.0278366 -0.5)
(-0.100708 0.027921 -0.5)
(-0.100252 0.0280048 -0.5)
(-0.0997948 0.0280881 -0.5)
(-0.0993355 0.028171 -0.5)
(-0.0988745 0.0282532 -0.5)
(-0.0984117 0.028335 -0.5)
(-0.0979472 0.0284162 -0.5)
(-0.097481 0.028497 -0.5)
(-0.0970131 0.0285771 -0.5)
(-0.0965435 0.0286568 -0.5)
(-0.0960721 0.0287359 -0.5)
(-0.0955991 0.0288145 -0.5)
(-0.0951243 0.0288926 -0.5)
(-0.0946479 0.0289701 -0.5)
(-0.0941698 0.0290471 -0.5)
(-0.09369 0.0291235 -0.5)
(-0.0932085 0.0291995 -0.5)
(-0.0927253 0.0292748 -0.5)
(-0.0922405 0.0293497 -0.5)
(-0.091754 0.029424 -0.5)
(-0.0912658 0.0294977 -0.5)
(-0.090776 0.029571 -0.5)
(-0.0902845 0.0296436 -0.5)
(-0.0897914 0.0297157 -0.5)
(-0.0892967 0.0297873 -0.5)
(-0.0888003 0.0298584 -0.5)
(-0.0883022 0.0299288 -0.5)
(-0.0878026 0.0299988 -0.5)
(-0.0873013 0.0300682 -0.5)
(-0.0867984 0.030137 -0.5)
(-0.0862939 0.0302053 -0.5)
(-0.0857878 0.030273 -0.5)
(-0.0852801 0.0303402 -0.5)
(-0.0847708 0.0304068 -0.5)
(-0.0842599 0.0304729 -0.5)
(-0.0837474 0.0305384 -0.5)
(-0.0832334 0.0306034 -0.5)
(-0.0827177 0.0306678 -0.5)
(-0.0822005 0.0307316 -0.5)
(-0.0816817 0.0307949 -0.5)
(-0.0811614 0.0308576 -0.5)
(-0.0806395 0.0309198 -0.5)
(-0.0801161 0.0309814 -0.5)
(-0.0795911 0.0310425 -0.5)
(-0.0790646 0.0311029 -0.5)
(-0.0785365 0.0311629 -0.5)
(-0.0780069 0.0312222 -0.5)
(-0.0774758 0.031281 -0.5)
(-0.0769431 0.0313392 -0.5)
(-0.076409 0.0313969 -0.5)
(-0.0758733 0.031454 -0.5)
(-0.0753361 0.0315105 -0.5)
(-0.0747975 0.0315665 -0.5)
(-0.0742573 0.0316219 -0.5)
(-0.0737157 0.0316767 -0.5)
(-0.0731725 0.0317309 -0.5)
(-0.0726279 0.0317846 -0.5)
(-0.0720819 0.0318378 -0.5)
(-0.0715343 0.0318903 -0.5)
(-0.0709853 0.0319423 -0.5)
(-0.0704349 0.0319937 -0.5)
(-0.0698829 0.0320445 -0.5)
(-0.0693296 0.0320948 -0.5)
(-0.0687748 0.0321445 -0.5)
(-0.0682186 0.0321936 -0.5)
(-0.0676609 0.0322421 -0.5)
(-0.0671018 0.0322901 -0.5)
(-0.0665414 0.0323375 -0.5)
(-0.0659795 0.0323843 -0.5)
(-0.0654162 0.0324306 -0.5)
(-0.0648514 0.0324762 -0.5)
(-0.0642853 0.0325213 -0.5)
(-0.0637179 0.0325659 -0.5)
(-0.063149 0.0326098 -0.5)
(-0.0625787 0.0326532 -0.5)
(-0.0620071 0.032696 -0.5)
(-0.0614341 0.0327382 -0.5)
(-0.0608598 0.0327799 -0.5)
(-0.060284 0.0328209 -0.5)
(-0.059707 0.0328614 -0.5)
(-0.0591286 0.0329014 -0.5)
(-0.0585488 0.0329407 -0.5)
(-0.0579678 0.0329795 -0.5)
(-0.0573854 0.0330177 -0.5)
(-0.0568017 0.0330553 -0.5)
(-0.0562166 0.0330923 -0.5)
(-0.0556303 0.0331288 -0.5)
(-0.0550426 0.0331647 -0.5)
(-0.0544537 0.0332 -0.5)
(-0.0538634 0.0332347 -0.5)
(-0.0532719 0.0332689 -0.5)
(-0.0526791 0.0333025 -0.5)
(-0.0520853 0.0333355 -0.5)
(-0.0514893 0.0333679 -0.5)
(-0.0508933 0.0333998 -0.5)
(-0.0502953 0.0334311 -0.5)
(-0.0496963 0.0334618 -0.5)
(-0.0490953 0.0334919 -0.5)
(-0.0484943 0.0335215 -0.5)
(-0.0478913 0.0335505 -0.5)
(-0.0472873 0.0335789 -0.5)
(-0.0466823 0.0336067 -0.5)
(-0.0460753 0.033634 -0.5)
(-0.0454673 0.0336607 -0.5)
(-0.0448593 0.0336868 -0.5)
(-0.0442493 0.0337124 -0.5)
(-0.0436373 0.0337374 -0.5)
(-0.0430253 0.0337618 -0.5)
(-0.0424113 0.0337856 -0.5)
(-0.0417963 0.0338089 -0.5)
(-0.0411803 0.0338316 -0.5)
(-0.0405633 0.0338537 -0.5)
(-0.0399453 0.0338753 -0.5)
(-0.0393253 0.0338963 -0.5)
(-0.0387053 0.0339167 -0.5)
(-0.0380833 0.0339365 -0.5)
(-0.0374603 0.0339558 -0.5)
(-0.0368363 0.0339745 -0.5)
(-0.0362113 0.0339927 -0.5)
(-0.0355853 0.0340103 -0.5)
(-0.0349573 0.0340273 -0.5)
(-0.0343293 0.0340438 -0.5)
(-0.0337003 0.0340597 -0.5)
(-0.0330693 0.034075 -0.5)
(-0.0324373 0.0340898 -0.5)
(-0.0318053 0.034104 -0.5)
(-0.0311713 0.0341176 -0.5)
(-0.0305363 0.0341307 -0.5)
(-0.0299003 0.0341433 -0.5)
(-0.0292633 0.0341552 -0.5)
(-0.0286253 0.0341666 -0.5)
(-0.0279863 0.0341775 -0.5)
(-0.0273463 0.0341878 -0.5)
(-0.0267053 0.0341975 -0.5)
(-0.0260623 0.0342067 -0.5)
(-0.0254193 0.0342153 -0.5)
(-0.0247753 0.0342234 -0.5)
(-0.0241303 0.034231 -0.5)
(-0.0234843 0.0342379 -0.5)
(-0.0228373 0.0342444 -0.5)
(-0.0221893 0.0342502 -0.5)
(-0.0215403 0.0342556 -0.5)
(-0.0208893 0.0342604 -0.5)
(-0.0202383 0.0342646 -0.5)
(-0.0195863 0.0342683 -0.5)
(-0.0189343 0.0342714 -0.5)
(-0.0182803 0.034274 -0.5)
(-0.0176253 0.0342761 -0.5)
(-0.0169693 0.0342776 -0.5)
(-0.0163133 0.0342786 -0.5)
(-0.0156553 0.034279 -0.5)
(-0.0149973 0.0342789 -0.5)
(-0.0143373 0.0342783 -0.5)
(-0.0136773 0.0342771 -0.5)
(-0.0130163 0.0342754 -0.5)
(-0.0123543 0.0342732 -0.5)
(-0.0116913 0.0342704 -0.5)
(-0.0110273 0.0342671 -0.5)
(-0.0103623 0.0342632 -0.5)
(-0.00969733 0.0342589 -0.5)
(-0.00903134 0.034254 -0.5)
(-0.00836334 0.0342486 -0.5)
(-0.00769633 0.0342426 -0.5)
(-0.00702733 0.0342362 -0.5)
(-0.00635733 0.0342291 -0.5)
(-0.00568734 0.0342216 -0.5)
(-0.00501533 0.0342136 -0.5)
(-0.00434333 0.034205 -0.5)
(-0.00367033 0.034196 -0.5)
(-0.00299734 0.0341864 -0.5)
(-0.00232233 0.0341763 -0.5)
(-0.00164734 0.0341656 -0.5)
(-0.000971331 0.0341545 -0.5)
(-0.000294327 0.0341429 -0.5)
(0.000382663 0.0341307 -0.5)
(0.00106166 0.034118 -0.5)
(0.00174067 0.0341049 -0.5)
(0.00242066 0.0340912 -0.5)
(0.00310066 0.034077 -0.5)
(0.00378166 0.0340623 -0.5)
(0.00446367 0.0340471 -0.5)
(0.00514667 0.0340315 -0.5)
(0.00582966 0.0340153 -0.5)
(0.00651367 0.0339986 -0.5)
(0.00719866 0.0339814 -0.5)
(0.00788367 0.0339637 -0.5)
(0.00856967 0.0339456 -0.5)
(0.00925666 0.0339269 -0.5)
(0.00994367 0.0339078 -0.5)
(0.0106327 0.0338881 -0.5)
(0.0113207 0.033868 -0.5)
(0.0120107 0.0338474 -0.5)
(0.0127007 0.0338263 -0.5)
(0.0133907 0.0338047 -0.5)
(0.0140817 0.0337827 -0.5)
(0.0147737 0.0337602 -0.5)
(0.0154667 0.0337372 -0.5)
(0.0161597 0.0337137 -0.5)
(0.0168527 0.0336897 -0.5)
(0.0175477 0.0336653 -0.5)
(0.0182417 0.0336404 -0.5)
(0.0189377 0.033615 -0.5)
(0.0196337 0.0335892 -0.5)
(0.0203297 0.0335629 -0.5)
(0.0210267 0.0335361 -0.5)
(0.0217247 0.0335089 -0.5)
(0.0224227 0.0334812 -0.5)
(0.0231217 0.0334531 -0.5)
(0.0238207 0.0334245 -0.5)
(0.0245207 0.0333954 -0.5)
(0.0252207 0.0333659 -0.5)
(0.0259217 0.0333359 -0.5)
(0.0266227 0.0333055 -0.5)
(0.0273247 0.0332747 -0.5)
(0.0280267 0.0332434 -0.5)
(0.0287297 0.0332116 -0.5)
(0.0294327 0.0331794 -0.5)
(0.0301357 0.0331468 -0.5)
(0.0308397 0.0331137 -0.5)
(0.0315447 0.0330802 -0.5)
(0.0322497 0.0330462 -0.5)
(0.0329547 0.0330118 -0.5)
(0.0336607 0.032977 -0.5)
(0.0343667 0.0329418 -0.5)
(0.0350737 0.0329061 -0.5)
(0.0357807 0.03287 -0.5)
(0.0364877 0.0328334 -0.5)
(0.0371957 0.0327965 -0.5)
(0.0379047 0.0327591 -0.5)
(0.0386127 0.0327213 -0.5)
(0.0393217 0.0326831 -0.5)
(0.0400307 0.0326445 -0.5)
(0.0407407 0.0326055 -0.5)
(0.0414507 0.032566 -0.5)
(0.0421617 0.0325261 -0.5)
(0.0428717 0.0324859 -0.5)
(0.0435827 0.0324452 -0.5)
(0.0442947 0.0324041 -0.5)
(0.0450067 0.0323626 -0.5)
(0.0457177 0.0323207 -0.5)
(0.0464307 0.0322785 -0.5)
(0.0471427 0.0322358 -0.5)
(0.0478557 0.0321927 -0.5)
(0.0485697 0.0321492 -0.5)
(0.0492827 0.0321054 -0.5)
(0.0499967 0.0320611 -0.5)
(0.0507107 0.0320165 -0.5)
(0.0514247 0.0319715 -0.5)
(0.0521387 0.0319261 -0.5)
(0.0528537 0.0318803 -0.5)
(0.0535687 0.0318341 -0.5)
(0.0542837 0.0317876 -0.5)
(0.0549997 0.0317407 -0.5)
(0.0557147 0.0316934 -0.5)
(0.0564307 0.0316457 -0.5)
(0.0571467 0.0315977 -0.5)
(0.0578627 0.0315493 -0.5)
(0.0585787 0.0315005 -0.5)
(0.0592957 0.0314514 -0.5)
(0.0600127 0.0314019 -0.5)
(0.0607287 0.0313521 -0.5)
(0.0614457 0.0313019 -0.5)
(0.0621637 0.0312513 -0.5)
(0.0628807 0.0312004 -0.5)
(0.0635977 0.0311491 -0.5)
(0.0643157 0.0310975 -0.5)
(0.0650337 0.0310455 -0.5)
(0.0657507 0.0309932 -0.5)
(0.0664687 0.0309406 -0.5)
(0.0671867 0.0308876 -0.5)
(0.0679047 0.0308342 -0.5)
(0.0686227 0.0307806 -0.5)
(0.0693417 0.0307266 -0.5)
(0.0700597 0.0306722 -0.5)
(0.0707777 0.0306176 -0.5)
(0.0714967 0.0305625 -0.5)
(0.0722147 0.0305072 -0.5)
(0.0729337 0.0304516 -0.5)
(0.0736517 0.0303956 -0.5)
(0.0743707 0.0303393 -0.5)
(0.0750887 0.0302827 -0.5)
(0.0758077 0.0302257 -0.5)
(0.0765257 0.0301685 -0.5)
(0.0772447 0.0301109 -0.5)
(0.0779627 0.030053 -0.5)
(0.0786817 0.0299948 -0.5)
(0.0794007 0.0299363 -0.5)
(0.0801187 0.0298775 -0.5)
(0.0808367 0.0298184 -0.5)
(0.0815557 0.029759 -0.5)
(0.0822737 0.0296993 -0.5)
(0.0829917 0.0296393 -0.5)
(0.0837107 0.029579 -0.5)
(0.0844287 0.0295184 -0.5)
(0.0851467 0.0294576 -0.5)
(0.0858647 0.0293964 -0.5)
(0.0865827 0.0293349 -0.5)
(0.0873007 0.0292732 -0.5)
(0.0880177 0.0292112 -0.5)
(0.0887357 0.0291489 -0.5)
(0.0894527 0.0290863 -0.5)
(0.0901697 0.0290234 -0.5)
(0.0908867 0.0289603 -0.5)
(0.0916047 0.0288969 -0.5)
(0.0923207 0.0288332 -0.5)
(0.0930377 0.0287692 -0.5)
(0.0937547 0.028705 -0.5)
(0.0944707 0.0286405 -0.5)
(0.0951867 0.0285758 -0.5)
(0.0959027 0.0285108 -0.5)
(0.0966187 0.0284455 -0.5)
(0.0973337 0.02838 -0.5)
(0.0980497 0.0283142 -0.5)
(0.0987647 0.0282482 -0.5)
(0.0994797 0.0281819 -0.5)
(0.100195 0.0281154 -0.5)
(0.100909 0.0280486 -0.5)
(0.101623 0.0279816 -0.5)
(0.102337 0.0279143 -0.5)
(0.103051 0.0278468 -0.5)
(0.103764 0.0277791 -0.5)
(0.104478 0.0277111 -0.5)
(0.105191 0.0276429 -0.5)
(0.105903 0.0275745 -0.5)
(0.106616 0.0275058 -0.5)
(0.107328 0.0274369 -0.5)
(0.108039 0.0273678 -0.5)
(0.108751 0.0272984 -0.5)
(0.109462 0.0272288 -0.5)
(0.110172 0.027159 -0.5)
(0.110883 0.027089 -0.5)
(0.111593 0.0270188 -0.5)
(0.112303 0.0269483 -0.5)
(0.113012 0.0268776 -0.5)
(0.113721 0.0268068 -0.5)
(0.114429 0.0267357 -0.5)
(0.115138 0.0266644 -0.5)
(0.115846 0.0265929 -0.5)
(0.116553 0.0265212 -0.5)
(0.11726 0.0264493 -0.5)
(0.117967 0.0263772 -0.5)
(0.118673 0.0263049 -0.5)
(0.119379 0.0262324 -0.5)
(0.120084 0.0261597 -0.5)
(0.120789 0.0260868 -0.5)
(0.121494 0.0260138 -0.5)
(0.122198 0.0259405 -0.5)
(0.122901 0.0258671 -0.5)
(0.123604 0.0257935 -0.5)
(0.124307 0.0257197 -0.5)
(0.125009 0.0256457 -0.5)
(0.125711 0.0255715 -0.5)
(0.126412 0.0254972 -0.5)
(0.127113 0.0254227 -0.5)
(0.127813 0.025348 -0.5)
(0.128513 0.0252731 -0.5)
(0.129212 0.0251981 -0.5)
(0.129911 0.0251229 -0.5)
(0.130609 0.0250476 -0.5)
(0.131307 0.024972 -0.5)
(0.132004 0.0248964 -0.5)
(0.1327 0.0248205 -0.5)
(0.133396 0.0247445 -0.5)
(0.134092 0.0246684 -0.5)
(0.134786 0.0245921 -0.5)
(0.135481 0.0245156 -0.5)
(0.136174 0.024439 -0.5)
(0.136867 0.0243623 -0.5)
(0.13756 0.0242854 -0.5)
(0.138252 0.0242084 -0.5)
(0.138943 0.0241312 -0.5)
(0.139633 0.0240539 -0.5)
(0.140324 0.0239764 -0.5)
(0.141013 0.0238988 -0.5)
(0.141702 0.0238211 -0.5)
(0.14239 0.0237433 -0.5)
(0.143077 0.0236653 -0.5)
(0.143764 0.0235872 -0.5)
(0.14445 0.0235089 -0.5)
(0.145135 0.0234306 -0.5)
(0.14582 0.0233521 -0.5)
(0.146504 0.0232735 -0.5)
(0.147187 0.0231947 -0.5)
(0.14787 0.0231159 -0.5)
(0.148552 0.0230369 -0.5)
(0.149233 0.0229579 -0.5)
(0.149914 0.0228787 -0.5)
(0.150593 0.0227994 -0.5)
(0.151272 0.02272 -0.5)
(0.151951 0.0226404 -0.5)
(0.152628 0.0225608 -0.5)
(0.153305 0.0224811 -0.5)
(0.153981 0.0224013 -0.5)
(0.154656 0.0223214 -0.5)
(0.155331 0.0222414 -0.5)
(0.156004 0.0221612 -0.5)
(0.156677 0.022081 -0.5)
(0.157349 0.0220007 -0.5)
(0.15802 0.0219204 -0.5)
(0.158691 0.0218399 -0.5)
(0.159361 0.0217593 -0.5)
(0.160029 0.0216787 -0.5)
(0.160698 0.0215979 -0.5)
(0.161365 0.0215171 -0.5)
(0.162031 0.0214362 -0.5)
(0.162697 0.0213553 -0.5)
(0.163361 0.0212742 -0.5)
(0.164025 0.0211931 -0.5)
(0.164688 0.0211119 -0.5)
(0.16535 0.0210307 -0.5)
(0.166011 0.0209494 -0.5)
(0.166671 0.020868 -0.5)
(0.167331 0.0207865 -0.5)
(0.167989 0.020705 -0.5)
(0.168647 0.0206234 -0.5)
(0.169303 0.0205417 -0.5)
(0.169959 0.0204601 -0.5)
(0.170614 0.0203783 -0.5)
(0.171268 0.0202965 -0.5)
(0.17192 0.0202146 -0.5)
(0.172572 0.0201327 -0.5)
(0.173223 0.0200507 -0.5)
(0.173874 0.0199687 -0.5)
(0.174523 0.0198867 -0.5)
(0.175171 0.0198046 -0.5)
(0.175818 0.0197224 -0.5)
(0.176464 0.0196403 -0.5)
(0.177109 0.019558 -0.5)
(0.177753 0.0194758 -0.5)
(0.178396 0.0193935 -0.5)
(0.179039 0.0193112 -0.5)
(0.17968 0.0192288 -0.5)
(0.18032 0.0191464 -0.5)
(0.180959 0.019064 -0.5)
(0.181597 0.0189815 -0.5)
(0.182234 0.0188991 -0.5)
(0.18287 0.0188166 -0.5)
(0.183505 0.0187341 -0.5)
(0.184138 0.0186515 -0.5)
(0.184771 0.018569 -0.5)
(0.185403 0.0184864 -0.5)
(0.186034 0.0184038 -0.5)
(0.186663 0.0183212 -0.5)
(0.187291 0.0182386 -0.5)
(0.187919 0.018156 -0.5)
(0.188545 0.0180734 -0.5)
(0.18917 0.0179908 -0.5)
(0.189794 0.0179081 -0.5)
(0.190417 0.0178255 -0.5)
(0.191039 0.0177429 -0.5)
(0.191659 0.0176602 -0.5)
(0.192279 0.0175776 -0.5)
(0.192897 0.017495 -0.5)
(0.193514 0.0174123 -0.5)
(0.19413 0.0173297 -0.5)
(0.194745 0.0172471 -0.5)
(0.195359 0.0171645 -0.5)
(0.195971 0.017082 -0.5)
(0.196582 0.0169994 -0.5)
(0.197193 0.0169168 -0.5)
(0.197801 0.0168343 -0.5)
(0.198409 0.0167518 -0.5)
(0.199016 0.0166693 -0.5)
(0.199621 0.0165868 -0.5)
(0.200225 0.0165044 -0.5)
(0.200828 0.016422 -0.5)
(0.20143 0.0163396 -0.5)
(0.20203 0.0162572 -0.5)
(0.202629 0.0161749 -0.5)
(0.203227 0.0160926 -0.5)
(0.203823 0.0160103 -0.5)
(0.204419 0.0159281 -0.5)
(0.205013 0.0158459 -0.5)
(0.205606 0.0157638 -0.5)
(0.206197 0.0156816 -0.5)
(0.206787 0.0155996 -0.5)
(0.207376 0.0155176 -0.5)
(0.207964 0.0154356 -0.5)
(0.20855 0.0153537 -0.5)
(0.209135 0.0152718 -0.5)
(0.209719 0.01519 -0.5)
(0.210302 0.0151082 -0.5)
(0.210883 0.0150265 -0.5)
(0.211462 0.0149448 -0.5)
(0.212041 0.0148632 -0.5)
(0.212618 0.0147817 -0.5)
(0.213193 0.0147002 -0.5)
(0.213768 0.0146187 -0.5)
(0.214341 0.0145374 -0.5)
(0.214912 0.0144561 -0.5)
(0.215483 0.0143749 -0.5)
(0.216052 0.0142937 -0.5)
(0.216619 0.0142126 -0.5)
(0.217185 0.0141316 -0.5)
(0.21775 0.0140507 -0.5)
(0.218313 0.0139698 -0.5)
(0.218875 0.0138891 -0.5)
(0.219436 0.0138084 -0.5)
(0.219995 0.0137277 -0.5)
(0.220552 0.0136472 -0.5)
(0.221108 0.0135667 -0.5)
(0.221663 0.0134864 -0.5)
(0.222217 0.0134061 -0.5)
(0.222769 0.0133259 -0.5)
(0.223319 0.0132458 -0.5)
(0.223868 0.0131658 -0.5)
(0.224416 0.0130859 -0.5)
(0.224962 0.0130061 -0.5)
(0.225506 0.0129263 -0.5)
(0.226049 0.0128467 -0.5)
(0.226591 0.0127672 -0.5)
(0.227131 0.0126878 -0.5)
(0.22767 0.0126085 -0.5)
(0.228207 0.0125293 -0.5)
(0.228743 0.0124502 -0.5)
(0.229277 0.0123712 -0.5)
(0.22981 0.0122923 -0.5)
(0.230341 0.0122135 -0.5)
(0.23087 0.0121349 -0.5)
(0.231398 0.0120563 -0.5)
(0.231925 0.0119779 -0.5)
(0.23245 0.0118996 -0.5)
(0.232973 0.0118214 -0.5)
(0.233495 0.0117434 -0.5)
(0.234015 0.0116654 -0.5)
(0.234534 0.0115876 -0.5)
(0.235051 0.0115099 -0.5)
(0.235567 0.0114324 -0.5)
(0.236081 0.0113549 -0.5)
(0.236594 0.0112776 -0.5)
(0.237104 0.0112005 -0.5)
(0.237614 0.0111235 -0.5)
(0.238122 0.0110466 -0.5)
(0.238628 0.0109698 -0.5)
(0.239132 0.0108932 -0.5)
(0.239635 0.0108168 -0.5)
(0.240136 0.0107404 -0.5)
(0.240636 0.0106642 -0.5)
(0.241134 0.0105882 -0.5)
(0.24163 0.0105123 -0.5)
(0.242125 0.0104366 -0.5)
(0.242618 0.010361 -0.5)
(0.24311 0.0102856 -0.5)
(0.243599 0.0102103 -0.5)
(0.244088 0.0101352 -0.5)
(0.244574 0.0100602 -0.5)
(0.245059 0.00998542 -0.5)
(0.245542 0.00991078 -0.5)
(0.246024 0.00983631 -0.5)
(0.246503 0.00976199 -0.5)
(0.246982 0.00968784 -0.5)
(0.247458 0.00961387 -0.5)
(0.247933 0.00954005 -0.5)
(0.248406 0.00946642 -0.5)
(0.248877 0.00939295 -0.5)
(0.249347 0.00931966 -0.5)
(0.249815 0.00924654 -0.5)
(0.250281 0.0091736 -0.5)
(0.250745 0.00910084 -0.5)
(0.251208 0.00902826 -0.5)
(0.251669 0.00895586 -0.5)
(0.252129 0.00888364 -0.5)
(0.252586 0.00881162 -0.5)
(0.253042 0.00873977 -0.5)
(0.253496 0.00866812 -0.5)
(0.253948 0.00859665 -0.5)
(0.254399 0.00852538 -0.5)
(0.254847 0.00845431 -0.5)
(0.255294 0.00838342 -0.5)
(0.25574 0.00831273 -0.5)
(0.256183 0.00824224 -0.5)
(0.256625 0.00817196 -0.5)
(0.257065 0.00810187 -0.5)
(0.257503 0.00803198 -0.5)
(0.257939 0.0079623 -0.5)
(0.258374 0.00789283 -0.5)
(0.258806 0.00782356 -0.5)
(0.259237 0.0077545 -0.5)
(0.259666 0.00768565 -0.5)
(0.260094 0.00761702 -0.5)
(0.260519 0.0075486 -0.5)
(0.260943 0.00748039 -0.5)
(0.261365 0.0074124 -0.5)
(0.261785 0.00734464 -0.5)
(0.262203 0.00727708 -0.5)
(0.262619 0.00720976 -0.5)
(0.263034 0.00714265 -0.5)
(0.263446 0.00707577 -0.5)
(0.263857 0.00700912 -0.5)
(0.264266 0.00694269 -0.5)
(0.264673 0.0068765 -0.5)
(0.265078 0.00681053 -0.5)
(0.265481 0.0067448 -0.5)
(0.265883 0.0066793 -0.5)
(0.266282 0.00661404 -0.5)
(0.26668 0.00654902 -0.5)
(0.267076 0.00648423 -0.5)
(0.26747 0.00641968 -0.5)
(0.267862 0.00635538 -0.5)
(0.268252 0.00629132 -0.5)
(0.26864 0.0062275 -0.5)
(0.269027 0.00616393 -0.5)
(0.269411 0.00610061 -0.5)
(0.269794 0.00603754 -0.5)
(0.270174 0.00597472 -0.5)
(0.270553 0.00591215 -0.5)
(0.27093 0.00584983 -0.5)
(0.271304 0.00578778 -0.5)
(0.271677 0.00572597 -0.5)
(0.272048 0.00566443 -0.5)
(0.272417 0.00560315 -0.5)
(0.272784 0.00554212 -0.5)
(0.27315 0.00548136 -0.5)
(0.273513 0.00542087 -0.5)
(0.273874 0.00536064 -0.5)
(0.274233 0.00530068 -0.5)
(0.274591 0.00524098 -0.5)
(0.274946 0.00518156 -0.5)
(0.275299 0.00512241 -0.5)
(0.275651 0.00506353 -0.5)
(0.276 0.00500493 -0.5)
(0.276348 0.0049466 -0.5)
(0.276693 0.00488855 -0.5)
(0.277037 0.00483078 -0.5)
(0.277378 0.00477329 -0.5)
(0.277718 0.00471608 -0.5)
(0.278055 0.00465916 -0.5)
(0.278391 0.00460252 -0.5)
(0.278724 0.00454616 -0.5)
(0.279056 0.0044901 -0.5)
(0.279385 0.00443432 -0.5)
(0.279713 0.00437883 -0.5)
(0.280039 0.00432363 -0.5)
(0.280362 0.00426873 -0.5)
(0.280684 0.00421412 -0.5)
(0.281003 0.00415981 -0.5)
(0.28132 0.0041058 -0.5)
(0.281636 0.00405208 -0.5)
(0.281949 0.00399866 -0.5)
(0.282261 0.00394555 -0.5)
(0.28257 0.00389274 -0.5)
(0.282877 0.00384023 -0.5)
(0.283182 0.00378803 -0.5)
(0.283485 0.00373613 -0.5)
(0.283787 0.00368454 -0.5)
(0.284086 0.00363327 -0.5)
(0.284383 0.0035823 -0.5)
(0.284678 0.00353164 -0.5)
(0.284971 0.0034813 -0.5)
(0.285261 0.00343128 -0.5)
(0.28555 0.00338156 -0.5)
(0.285837 0.00333217 -0.5)
(0.286121 0.0032831 -0.5)
(0.286404 0.00323434 -0.5)
(0.286684 0.00318591 -0.5)
(0.286963 0.00313779 -0.5)
(0.287239 0.00309001 -0.5)
(0.287513 0.00304254 -0.5)
(0.287785 0.00299541 -0.5)
(0.288055 0.0029486 -0.5)
(0.288323 0.00290212 -0.5)
(0.288589 0.00285597 -0.5)
(0.288853 0.00281015 -0.5)
(0.289114 0.00276466 -0.5)
(0.289374 0.00271951 -0.5)
(0.289631 0.00267469 -0.5)
(0.289887 0.0026302 -0.5)
(0.29014 0.00258606 -0.5)
(0.290391 0.00254225 -0.5)
(0.29064 0.00249878 -0.5)
(0.290887 0.00245566 -0.5)
(0.291131 0.00241287 -0.5)
(0.291374 0.00237043 -0.5)
(0.291614 0.00232833 -0.5)
(0.291853 0.00228658 -0.5)
(0.292089 0.00224517 -0.5)
(0.292323 0.00220411 -0.5)
(0.292555 0.0021634 -0.5)
(0.292785 0.00212304 -0.5)
(0.293012 0.00208303 -0.5)
(0.293238 0.00204337 -0.5)
(0.293461 0.00200406 -0.5)
(0.293682 0.00196511 -0.5)
(0.293901 0.00192652 -0.5)
(0.294118 0.00188828 -0.5)
(0.294333 0.00185039 -0.5)
(0.294546 0.00181287 -0.5)
(0.294756 0.0017757 -0.5)
(0.294964 0.0017389 -0.5)
(0.29517 0.00170245 -0.5)
(0.295374 0.00166637 -0.5)
(0.295576 0.00163066 -0.5)
(0.295776 0.0015953 -0.5)
(0.295973 0.00156031 -0.5)
(0.296168 0.00152569 -0.5)
(0.296361 0.00149143 -0.5)
(0.296552 0.00145755 -0.5)
(0.296741 0.00142403 -0.5)
(0.296928 0.00139088 -0.5)
(0.297112 0.0013581 -0.5)
(0.297294 0.0013257 -0.5)
(0.297474 0.00129367 -0.5)
(0.297652 0.00126201 -0.5)
(0.297827 0.00123072 -0.5)
(0.298001 0.00119982 -0.5)
(0.298172 0.00116928 -0.5)
(0.298341 0.00113913 -0.5)
(0.298508 0.00110935 -0.5)
(0.298672 0.00107995 -0.5)
(0.298835 0.00105093 -0.5)
(0.298995 0.00102229 -0.5)
(0.299153 0.000994036 -0.5)
(0.299309 0.000966161 -0.5)
(0.299462 0.000938668 -0.5)
(0.299614 0.00091156 -0.5)
(0.299763 0.000884835 -0.5)
(0.29991 0.000858496 -0.5)
(0.300055 0.000832542 -0.5)
(0.300197 0.000806975 -0.5)
(0.300338 0.000781796 -0.5)
(0.300476 0.000757004 -0.5)
(0.300612 0.000732602 -0.5)
(0.300745 0.000708588 -0.5)
(0.300877 0.000684965 -0.5)
(0.301006 0.000661733 -0.5)
(0.301133 0.000638892 -0.5)
(0.301258 0.000616443 -0.5)
(0.30138 0.000594387 -0.5)
(0.301501 0.000572725 -0.5)
(0.301619 0.000551456 -0.5)
(0.301734 0.000530582 -0.5)
(0.301848 0.000510104 -0.5)
(0.30196 0.000490021 -0.5)
(0.302069 0.000470334 -0.5)
(0.302176 0.000451045 -0.5)
(0.30228 0.000432153 -0.5)
(0.302383 0.000413659 -0.5)
(0.302483 0.000395563 -0.5)
(0.302581 0.000377867 -0.5)
(0.302677 0.000360571 -0.5)
(0.30277 0.000343674 -0.5)
(0.302862 0.000327178 -0.5)
(0.302951 0.000311083 -0.5)
(0.303037 0.00029539 -0.5)
(0.303122 0.000280098 -0.5)
(0.303204 0.000265209 -0.5)
(0.303284 0.000250723 -0.5)
(0.303362 0.000236641 -0.5)
(0.303438 0.000222961 -0.5)
(0.303511 0.000209686 -0.5)
(0.303582 0.000196816 -0.5)
(0.303651 0.00018435 -0.5)
(0.303717 0.00017229 -0.5)
(0.303782 0.000160635 -0.5)
(0.303844 0.000149386 -0.5)
(0.303904 0.000138543 -0.5)
(0.303961 0.000128106 -0.5)
(0.304016 0.000118077 -0.5)
(0.30407 0.000108455 -0.5)
(0.30412 9.92395e-05 -0.5)
(0.304169 9.04323e-05 -0.5)
(0.304215 8.20329e-05 -0.5)
(0.304259 7.40417e-05 -0.5)
(0.304301 6.64589e-05 -0.5)
(0.304341 5.92847e-05 -0.5)
(0.304378 5.25194e-05 -0.5)
(0.304413 4.61631e-05 -0.5)
(0.304446 4.0216e-05 -0.5)
(0.304476 3.46783e-05 -0.5)
(0.304504 2.95502e-05 -0.5)
(0.30453 2.48318e-05 -0.5)
(0.304554 2.05232e-05 -0.5)
(0.304575 1.66245e-05 -0.5)
(0.304595 1.3136e-05 -0.5)
(0.304612 1.00576e-05 -0.5)
(0.304626 7.38949e-06 -0.5)
(0.304639 5.13173e-06 -0.5)
(0.304649 3.28438e-06 -0.5)
(0.304657 1.84749e-06 -0.5)
(0.304662 8.21118e-07 -0.5)
(0.304666 2.05281e-07 -0.5)
(0.304666 -2.05281e-07 -0.5)
(0.304662 -8.21118e-07 -0.5)
(0.304657 -1.84749e-06 -0.5)
(0.304649 -3.28438e-06 -0.5)
(0.304639 -5.13173e-06 -0.5)
(0.304626 -7.38949e-06 -0.5)
(0.304612 -1.00576e-05 -0.5)
(0.304595 -1.3136e-05 -0.5)
(0.304575 -1.66245e-05 -0.5)
(0.304554 -2.05232e-05 -0.5)
(0.30453 -2.48318e-05 -0.5)
(0.304504 -2.95502e-05 -0.5)
(0.304476 -3.46783e-05 -0.5)
(0.304446 -4.0216e-05 -0.5)
(0.304413 -4.61631e-05 -0.5)
(0.304378 -5.25194e-05 -0.5)
(0.304341 -5.92847e-05 -0.5)
(0.304301 -6.64589e-05 -0.5)
(0.304259 -7.40417e-05 -0.5)
(0.304215 -8.20329e-05 -0.5)
(0.304169 -9.04323e-05 -0.5)
(0.30412 -9.92395e-05 -0.5)
(0.30407 -0.000108455 -0.5)
(0.304016 -0.000118077 -0.5)
(0.303961 -0.000128106 -0.5)
(0.303904 -0.000138543 -0.5)
(0.303844 -0.000149386 -0.5)
(0.303782 -0.000160635 -0.5)
(0.303717 -0.00017229 -0.5)
(0.303651 -0.00018435 -0.5)
(0.303582 -0.000196816 -0.5)
(0.303511 -0.000209686 -0.5)
(0.303438 -0.000222961 -0.5)
(0.303362 -0.000236641 -0.5)
(0.303284 -0.000250723 -0.5)
(0.303204 -0.000265209 -0.5)
(0.303122 -0.000280098 -0.5)
(0.303037 -0.00029539 -0.5)
(0.302951 -0.000311083 -0.5)
(0.302862 -0.000327178 -0.5)
(0.30277 -0.000343674 -0.5)
(0.302677 -0.000360571 -0.5)
(0.302581 -0.000377867 -0.5)
(0.302483 -0.000395563 -0.5)
(0.302383 -0.000413659 -0.5)
(0.30228 -0.000432153 -0.5)
(0.302176 -0.000451045 -0.5)
(0.302069 -0.000470334 -0.5)
(0.30196 -0.000490021 -0.5)
(0.301848 -0.000510104 -0.5)
(0.301734 -0.000530582 -0.5)
(0.301619 -0.000551456 -0.5)
(0.301501 -0.000572725 -0.5)
(0.30138 -0.000594387 -0.5)
(0.301258 -0.000616443 -0.5)
(0.301133 -0.000638892 -0.5)
(0.301006 -0.000661733 -0.5)
(0.300877 -0.000684965 -0.5)
(0.300745 -0.000708588 -0.5)
(0.300612 -0.000732602 -0.5)
(0.300476 -0.000757004 -0.5)
(0.300338 -0.000781796 -0.5)
(0.300197 -0.000806975 -0.5)
(0.300055 -0.000832542 -0.5)
(0.29991 -0.000858496 -0.5)
(0.299763 -0.000884835 -0.5)
(0.299614 -0.00091156 -0.5)
(0.299462 -0.000938668 -0.5)
(0.299309 -0.000966161 -0.5)
(0.299153 -0.000994036 -0.5)
(0.298995 -0.00102229 -0.5)
(0.298835 -0.00105093 -0.5)
(0.298672 -0.00107995 -0.5)
(0.298508 -0.00110935 -0.5)
(0.298341 -0.00113913 -0.5)