/*--------------------------------*- C++ -*----------------------------------*\
| =========                 |                                                 |
| \\      /  F ield         | OpenFOAM: The Open Source CFD Toolbox           |
|  \\    /   O peration     | Version:  2.3.x                                 |
|   \\  /    A nd           | Web:      www.OpenFOAM.org                      |
|    \\/     M anipulation  |                                                 |
\*---------------------------------------------------------------------------*/
FoamFile
{
    version     2.0;
    format      ascii;
    class       extendedFeatureEdgeMesh;
    location    "constant/extendedFeatureEdgeMesh";
    object      wing_5degrees.extendedFeatureEdgeMesh;
}
// * * * * * * * * * * * * * * * * * * * * * * * * * * * * * * * * * * * * * //

// points

96
(
(0.04989 0.00334 0.1)
(0.05 0 0.1)
(0.04989 -0.00334 -0.1)
(0.05 0 -0.1)
(0.04989 0.00334 -0.1)
(0.049 0.00996 -0.1)
(0.049 0.00996 0.1)
(0.04723 0.0164 -0.1)
(0.04723 0.0164 0.1)
(0.04463 0.02255 -0.1)
(0.04463 0.02255 0.1)
(0.04122 0.0283 -0.1)
(0.04122 0.0283 0.1)
(0.03708 0.03354 -0.1)
(0.03708 0.03354 0.1)
(0.03228 0.03818 -0.1)
(0.03228 0.03818 0.1)
(0.0269 0.04214 -0.1)
(0.0269 0.04214 0.1)
(0.02105 0.04535 -0.1)
(0.02105 0.04535 0.1)
(0.01481 0.04776 -0.1)
(0.01481 0.04776 0.1)
(0.00832 0.0493 -0.1)
(0.00832 0.0493 0.1)
(0.00167 0.04997 -0.1)
(0.00167 0.04997 0.1)
(-0.005 0.04975 -0.1)
(-0.005 0.04975 0.1)
(-0.01159 0.04864 -0.1)
(-0.01159 0.04864 0.1)
(-0.01797 0.04666 -0.1)
(-0.01797 0.04666 0.1)
(-0.02403 0.04385 -0.1)
(-0.02403 0.04385 0.1)
(-0.02966 0.04025 -0.1)
(-0.02966 0.04025 0.1)
(-0.03476 0.03594 -0.1)
(-0.03476 0.03594 0.1)
(-0.03924 0.03099 -0.1)
(-0.03924 0.03099 0.1)
(-0.04302 0.02548 -0.1)
(-0.04302 0.02548 0.1)
(-0.04603 0.01952 -0.1)
(-0.04603 0.01952 0.1)
(-0.04822 0.01321 -0.1)
(-0.04822 0.01321 0.1)
(-0.04955 0.00666 -0.1)
(-0.04955 0.00666 0.1)
(-0.05 0 -0.1)
(-0.05 0 0.1)
(-0.04955 -0.00666 -0.1)
(-0.04955 -0.00666 0.1)
(-0.04822 -0.01321 -0.1)
(-0.04822 -0.01321 0.1)
(-0.04603 -0.01952 -0.1)
(-0.04603 -0.01952 0.1)
(-0.04302 -0.02548 -0.1)
(-0.04302 -0.02548 0.1)
(-0.03924 -0.03099 -0.1)
(-0.03924 -0.03099 0.1)
(-0.03476 -0.03594 -0.1)
(-0.03476 -0.03594 0.1)
(-0.02966 -0.04025 -0.1)
(-0.02966 -0.04025 0.1)
(-0.02403 -0.04385 -0.1)
(-0.02403 -0.04385 0.1)
(-0.01797 -0.04666 -0.1)
(-0.01797 -0.04666 0.1)
(-0.01159 -0.04864 -0.1)
(-0.01159 -0.04864 0.1)
(-0.005 -0.04975 -0.1)
(-0.005 -0.04975 0.1)
(0.00167 -0.04997 -0.1)
(0.00167 -0.04997 0.1)
(0.00832 -0.0493 -0.1)
(0.00832 -0.0493 0.1)
(0.01481 -0.04776 -0.1)
(0.01481 -0.04776 0.1)
(0.02105 -0.04535 -0.1)
(0.02105 -0.04535 0.1)
(0.0269 -0.04214 -0.1)
(0.0269 -0.04214 0.1)
(0.03228 -0.03818 -0.1)
(0.03228 -0.03818 0.1)
(0.03708 -0.03354 -0.1)
(0.03708 -0.03354 0.1)
(0.04122 -0.0283 -0.1)
(0.04122 -0.0283 0.1)
(0.04463 -0.02255 -0.1)
(0.04463 -0.02255 0.1)
(0.04723 -0.0164 -0.1)
(0.04723 -0.0164 0.1)
(0.049 -0.00996 -0.1)
(0.049 -0.00996 0.1)
(0.04989 -0.00334 0.1)
)

// edges

96
(
(0 1)
(2 3)
(3 4)
(4 5)
(6 0)
(5 7)
(8 6)
(7 9)
(10 8)
(9 11)
(12 10)
(11 13)
(14 12)
(13 15)
(16 14)
(15 17)
(18 16)
(17 19)
(20 18)
(19 21)
(22 20)
(21 23)
(24 22)
(23 25)
(26 24)
(25 27)
(28 26)
(27 29)
(30 28)
(29 31)
(32 30)
(31 33)
(34 32)
(33 35)
(36 34)
(35 37)
(38 36)
(37 39)
(40 38)
(39 41)
(42 40)
(41 43)
(44 42)
(43 45)
(46 44)
(45 47)
(48 46)
(47 49)
(50 48)
(49 51)
(52 50)
(51 53)
(54 52)
(53 55)
(56 54)
(55 57)
(58 56)
(57 59)
(60 58)
(59 61)
(62 60)
(61 63)
(64 62)
(63 65)
(66 64)
(65 67)
(68 66)
(67 69)
(70 68)
(69 71)
(72 70)
(71 73)
(74 72)
(73 75)
(76 74)
(75 77)
(78 76)
(77 79)
(80 78)
(79 81)
(82 80)
(81 83)
(84 82)
(83 85)
(86 84)
(85 87)
(88 86)
(87 89)
(90 88)
(89 91)
(92 90)
(91 93)
(94 92)
(93 2)
(95 94)
(1 95)
)

// concaveStart mixedStart nonFeatureStart
0 0 0
// internalStart flatStart openStart multipleStart
96 96 96 96
// normals

180
(
(0.999458 0.0329163 0)
(0 0 1)
(0.999458 -0.0329163 0)
(0 0 -1)
(0.999458 0.0329163 0)
(0 0 -1)
(0.991083 0.133242 0)
(0 0 -1)
(0.991083 0.133242 0)
(0 0 1)
(0.964244 0.265017 0)
(0 0 -1)
(0.964244 0.265017 0)
(0 0 1)
(0.921071 0.389396 0)
(0 0 -1)
(0.921071 0.389396 0)
(0 0 1)
(0.860121 0.510089 0)
(0 0 -1)
(0.860121 0.510089 0)
(0 0 1)
(0.784653 0.619936 0)
(0 0 -1)
(0.784653 0.619936 0)
(0 0 1)
(0.695022 0.718988 0)
(0 0 -1)
(0.695022 0.718988 0)
(0 0 1)
(0.59279 0.805357 0)
(0 0 -1)
(0.59279 0.805357 0)
(0 0 1)
(0.481056 0.87669 0)
(0 0 -1)
(0.481056 0.87669 0)
(0 0 1)
(0.360281 0.932844 0)
(0 0 -1)
(0.360281 0.932844 0)
(0.230877 0.972983 0)
(0 0 -1)
(0.230877 0.972983 0)
(0 0 1)
(0.100244 0.994963 0)
(0 0 -1)
(0.100244 0.994963 0)
(0 0 1)
(-0.0329656 0.999456 0)
(-0.0329656 0.999456 0)
(-0 0 1)
(-0.166097 0.986109 0)
(0 -0 -1)
(-0.166097 0.986109 0)
(-0.296399 0.955064 0)
(0 -0 -1)
(-0.296399 0.955064 0)
(0 0 1)
(-0.420671 0.907213 0)
(0 -0 -1)
(-0.420671 0.907213 0)
(0 0 1)
(-0.538714 0.842489 0)
(0 -0 -1)
(-0.538714 0.842489 0)
(-0.645472 0.763784 0)
(0 -0 -1)
(-0.645472 0.763784 0)
(-0 0 1)
(-0.741429 0.671031 0)
(0 -0 -1)
(-0.741429 0.671031 0)
(0 0 1)
(-0.824609 0.565703 0)
(0 -0 -1)
(-0.824609 0.565703 0)
(0 0 1)
(-0.892623 0.450804 0)
(0 -0 -1)
(-0.892623 0.450804 0)
(-0 0 1)
(-0.944719 0.327882 0)
(0 -0 -1)
(-0.944719 0.327882 0)
(-0 0 1)
(-0.980001 0.198993 0)
(0 -0 -1)
(-0.980001 0.198993 0)
(-0 0 1)
(-0.997725 0.0674139 0)
(0 -0 -1)
(-0.997725 0.0674139 0)
(-0.997725 -0.0674139 -0)
(0 0 -1)
(-0.997725 -0.0674139 0)
(0 -0 1)
(-0.980001 -0.198993 -0)
(-0.980001 -0.198993 0)
(0 -0 1)
(-0.944719 -0.327882 -0)
(0 0 -1)
(-0.944719 -0.327882 0)
(0 -0 1)
(-0.892623 -0.450804 -0)
(0 0 -1)
(-0.892623 -0.450804 0)
(0 -0 1)
(-0.824609 -0.565703 -0)
(0 0 -1)
(-0.824609 -0.565703 0)
(0 -0 1)
(-0.741429 -0.671031 -0)
(-0.741429 -0.671031 0)
(0 -0 1)
(-0.645472 -0.763784 -0)
(0 0 -1)
(-0.645472 -0.763784 0)
(0 -0 1)
(-0.538714 -0.842489 -0)
(0 0 -1)
(-0.538714 -0.842489 0)
(0 -0 1)
(-0.420671 -0.907213 -0)
(0 0 -1)
(-0.420671 -0.907213 0)
(0 -0 1)
(-0.296399 -0.955064 -0)
(-0.296399 -0.955064 0)
(0 -0 1)
(-0.166097 -0.986109 -0)
(0 0 -1)
(-0.166097 -0.986109 0)
(0 -0 1)
(-0.0329656 -0.999456 -0)
(0 0 -1)
(-0.0329656 -0.999456 0)
(-0 0 1)
(0.100244 -0.994963 0)
(0.100244 -0.994963 0)
(0.230877 -0.972983 0)
(0 0 -1)
(0.230877 -0.972983 0)
(-0 0 1)
(0.360281 -0.932844 0)
(0 0 -1)
(0.360281 -0.932844 0)
(-0 0 1)
(0.481056 -0.87669 0)
(0.481056 -0.87669 0)
(-0 0 1)
(0.59279 -0.805357 0)
(-0 0 -1)
(0.59279 -0.805357 0)
(-0 0 1)
(0.695022 -0.718988 0)
(0.695022 -0.718988 0)
(-0 0 1)
(0.784653 -0.619936 0)
(0 0 -1)
(0.784653 -0.619936 0)
(-0 0 1)
(0.860121 -0.510089 0)
(0 0 -1)
(0.860121 -0.510089 0)
(-0 0 1)
(0.921071 -0.389396 0)
(0 0 -1)
(0.921071 -0.389396 0)
(-0 0 1)
(0.964244 -0.265017 0)
(0 0 -1)
(0.964244 -0.265017 0)
(-0 0 1)
(0.991083 -0.133242 0)
(-0 0 -1)
(0.991083 -0.133242 0)
(-0 0 1)
(0.999458 -0.0329163 0)
(-0 0 1)
)

// normal volume types

180
(
0
0
0
0
0
0
0
0
0
0
0
0
0
0
0
0
0
0
0
0
0
0
0
0
0
0
0
0
0
0
0
0
0
0
0
0
0
0
0
0
0
0
0
0
0
0
0
0
0
0
0
0
0
0
0
0
0
0
0
0
0
0
0
0
0
0
0
0
0
0
0
0
0
0
0
0
0
0
0
0
0
0
0
0
0
0
0
0
0
0
0
0
0
0
0
0
0
0
0
0
0
0
0
0
0
0
0
0
0
0
0
0
0
0
0
0
0
0
0
0
0
0
0
0
0
0
0
0
0
0
0
0
0
0
0
0
0
0
0
0
0
0
0
0
0
0
0
0
0
0
0
0
0
0
0
0
0
0
0
0
0
0
0
0
0
0
0
0
0
0
0
0
0
0
0
0
0
0
0
0
)

// normalDirections

96
(
2(1 -1)
2(1 -1)
2(1 -1)
2(1 -1)
2(1 -1)
2(1 -1)
2(1 -1)
2(1 -1)
2(1 -1)
2(1 -1)
2(1 -1)
2(1 -1)
2(1 -1)
2(1 -1)
2(1 -1)
2(1 -1)
2(1 -1)
2(1 -1)
2(1 -1)
2(1 -1)
2(1 -1)
2(1 -1)
2(1 -1)
2(1 -1)
2(1 -1)
2(1 -1)
2(1 -1)
2(1 -1)
2(1 -1)
2(1 -1)
2(1 -1)
2(1 -1)
2(1 -1)
2(1 -1)
2(1 -1)
2(1 -1)
2(1 -1)
2(1 -1)
2(1 -1)
2(1 -1)
2(1 -1)
2(1 -1)
2(1 -1)
2(1 -1)
2(1 -1)
2(1 -1)
2(1 -1)
2(1 -1)
2(1 -1)
2(1 -1)
2(1 -1)
2(1 -1)
2(1 -1)
2(1 -1)
2(1 -1)
2(1 -1)
2(1 -1)
2(1 -1)
2(1 -1)
2(1 -1)
2(1 -1)
2(1 -1)
2(1 -1)
2(1 -1)
2(1 -1)
2(1 -1)
2(1 -1)
2(1 -1)
2(1 -1)
2(1 -1)
2(1 -1)
2(1 -1)
2(1 -1)
2(1 -1)
2(1 -1)
2(1 -1)
2(1 -1)
2(1 -1)
2(1 -1)
2(1 -1)
2(1 -1)
2(1 -1)
2(1 -1)
2(1 -1)
2(1 -1)
2(1 -1)
2(1 -1)
2(1 -1)
2(1 -1)
2(1 -1)
2(1 -1)
2(1 -1)
2(1 -1)
2(1 -1)
2(1 -1)
2(1 -1)
)

// edgeNormals

96
(
2(0 1)
2(2 3)
2(4 5)
2(6 7)
2(8 9)
2(10 11)
2(12 13)
2(14 15)
2(16 17)
2(18 19)
2(20 21)
2(22 23)
2(24 25)
2(26 27)
2(28 29)
2(30 31)
2(32 33)
2(34 35)
2(36 37)
2(38 39)
2(40 37)
2(41 42)
2(43 44)
2(45 46)
2(47 48)
2(49 46)
2(50 51)
2(52 53)
2(54 51)
2(55 56)
2(57 58)
2(59 60)
2(61 62)
2(63 64)
2(65 62)
2(66 67)
2(68 69)
2(70 71)
2(72 73)
2(74 75)
2(76 77)
2(78 79)
2(80 81)
2(82 83)
2(84 85)
2(86 87)
2(88 89)
2(90 91)
2(92 89)
2(93 94)
2(95 96)
2(97 94)
2(98 99)
2(100 101)
2(102 103)
2(104 105)
2(106 107)
2(108 109)
2(110 111)
2(112 109)
2(113 114)
2(115 116)
2(117 118)
2(119 120)
2(121 122)
2(123 124)
2(125 126)
2(127 124)
2(128 129)
2(130 131)
2(132 133)
2(134 135)
2(136 137)
2(138 135)
2(139 137)
2(140 141)
2(142 143)
2(144 145)
2(146 147)
2(148 145)
2(149 150)
2(151 152)
2(153 154)
2(155 152)
2(156 157)
2(158 159)
2(160 161)
2(162 163)
2(164 165)
2(166 167)
2(168 169)
2(170 171)
2(172 173)
2(174 175)
2(176 177)
2(178 179)
)

// featurePointNormals
0()
// featurePointEdges
0()
// regionEdges
0()


// ************************************************************************* //
