/*--------------------------------*- C++ -*----------------------------------*\
| =========                 |                                                 |
| \\      /  F ield         | OpenFOAM: The Open Source CFD Toolbox           |
|  \\    /   O peration     | Version:  2.3.x                                 |
|   \\  /    A nd           | Web:      www.OpenFOAM.org                      |
|    \\/     M anipulation  |                                                 |
\*---------------------------------------------------------------------------*/
FoamFile
{
    version     2.0;
    format      ascii;
    class       polyBoundaryMesh;
    location    "constant/polyMesh";
    object      boundary;
}
// * * * * * * * * * * * * * * * * * * * * * * * * * * * * * * * * * * * * * //

3
(
    couple1
    {
        type            patch;
        nFaces          60;
        startFace       59220;
    }
    frontandback
    {
        type            empty;
        inGroups        1(empty);
        nFaces          6360;
        startFace       59280;
    }
    wing
    {
        type            wall;
        inGroups        1(wall);
        nFaces          3840;
        startFace       65640;
    }
)

// ************************************************************************* //
