/*--------------------------------*- C++ -*----------------------------------*\
| =========                 |                                                 |
| \\      /  F ield         | OpenFOAM: The Open Source CFD Toolbox           |
|  \\    /   O peration     | Version:  2.3.x                                 |
|   \\  /    A nd           | Web:      www.OpenFOAM.org                      |
|    \\/     M anipulation  |                                                 |
\*---------------------------------------------------------------------------*/
FoamFile
{
    version     2.0;
    format      ascii;
    class       featureEdgeMesh;
    location    "constant/triSurface";
    object      AMIinterface_scaledfine.eMesh;
}
// * * * * * * * * * * * * * * * * * * * * * * * * * * * * * * * * * * * * * //


// points:

124
(
(-2 0 0.2)
(-1.98974 0.202337 0.2)
(-2 0 -0.2)
(-1.98974 -0.202337 -0.2)
(-1.98974 -0.202337 0.2)
(-1.95906 -0.402597 -0.2)
(-1.95906 -0.402597 0.2)
(-1.90828 -0.598726 -0.2)
(-1.90828 -0.598726 0.2)
(-1.83792 -0.788712 -0.2)
(-1.83792 -0.788712 0.2)
(-1.74869 -0.970604 -0.2)
(-1.74869 -0.970604 0.2)
(-1.64153 -1.14254 -0.2)
(-1.64153 -1.14254 0.2)
(-1.51752 -1.30274 -0.2)
(-1.51752 -1.30274 0.2)
(-1.37793 -1.44959 -0.2)
(-1.37793 -1.44959 0.2)
(-1.22421 -1.58155 -0.2)
(-1.22421 -1.58155 0.2)
(-1.05793 -1.69729 -0.2)
(-1.05793 -1.69729 0.2)
(-0.880788 -1.79561 -0.2)
(-0.880788 -1.79561 0.2)
(-0.69461 -1.8755 -0.2)
(-0.69461 -1.8755 0.2)
(-0.501305 -1.93615 -0.2)
(-0.501305 -1.93615 0.2)
(-0.302856 -1.97694 -0.2)
(-0.302856 -1.97694 0.2)
(-0.101298 -1.99743 -0.2)
(-0.101298 -1.99743 0.2)
(0.101298 -1.99743 -0.2)
(0.101298 -1.99743 0.2)
(0.302856 -1.97694 -0.2)
(0.302856 -1.97694 0.2)
(0.501305 -1.93615 -0.2)
(0.501305 -1.93615 0.2)
(0.69461 -1.8755 -0.2)
(0.69461 -1.8755 0.2)
(0.880788 -1.79561 -0.2)
(0.880788 -1.79561 0.2)
(1.05793 -1.69729 -0.2)
(1.05793 -1.69729 0.2)
(1.22421 -1.58155 -0.2)
(1.22421 -1.58155 0.2)
(1.37793 -1.44959 -0.2)
(1.37793 -1.44959 0.2)
(1.51752 -1.30274 -0.2)
(1.51752 -1.30274 0.2)
(1.64153 -1.14254 -0.2)
(1.64153 -1.14254 0.2)
(1.74869 -0.970604 -0.2)
(1.74869 -0.970604 0.2)
(1.83792 -0.788712 -0.2)
(1.83792 -0.788712 0.2)
(1.90828 -0.598726 -0.2)
(1.90828 -0.598726 0.2)
(1.95906 -0.402597 -0.2)
(1.95906 -0.402597 0.2)
(1.98974 -0.202337 -0.2)
(1.98974 -0.202337 0.2)
(2 7.34788e-16 -0.2)
(2 2.44929e-16 0.2)
(1.98974 0.202337 -0.2)
(1.98974 0.202337 0.2)
(1.95906 0.402597 -0.2)
(1.95906 0.402597 0.2)
(1.90828 0.598726 -0.2)
(1.90828 0.598726 0.2)
(1.83792 0.788712 -0.2)
(1.83792 0.788712 0.2)
(1.74869 0.970604 -0.2)
(1.74869 0.970604 0.2)
(1.64153 1.14254 -0.2)
(1.64153 1.14254 0.2)
(1.51752 1.30274 -0.2)
(1.51752 1.30274 0.2)
(1.37793 1.44959 -0.2)
(1.37793 1.44959 0.2)
(1.22421 1.58155 -0.2)
(1.22421 1.58155 0.2)
(1.05793 1.69729 -0.2)
(1.05793 1.69729 0.2)
(0.880788 1.79561 -0.2)
(0.880788 1.79561 0.2)
(0.69461 1.8755 -0.2)
(0.69461 1.8755 0.2)
(0.501305 1.93615 -0.2)
(0.501305 1.93615 0.2)
(0.302856 1.97694 -0.2)
(0.302856 1.97694 0.2)
(0.101298 1.99743 -0.2)
(0.101298 1.99743 0.2)
(-0.101298 1.99743 -0.2)
(-0.101298 1.99743 0.2)
(-0.302856 1.97694 -0.2)
(-0.302856 1.97694 0.2)
(-0.501305 1.93615 -0.2)
(-0.501305 1.93615 0.2)
(-0.69461 1.8755 -0.2)
(-0.69461 1.8755 0.2)
(-0.880788 1.79561 -0.2)
(-0.880788 1.79561 0.2)
(-1.05793 1.69729 -0.2)
(-1.05793 1.69729 0.2)
(-1.22421 1.58155 -0.2)
(-1.22421 1.58155 0.2)
(-1.37793 1.44959 -0.2)
(-1.37793 1.44959 0.2)
(-1.51752 1.30274 -0.2)
(-1.51752 1.30274 0.2)
(-1.64153 1.14254 -0.2)
(-1.64153 1.14254 0.2)
(-1.74869 0.970604 -0.2)
(-1.74869 0.970604 0.2)
(-1.83792 0.788712 -0.2)
(-1.83792 0.788712 0.2)
(-1.90828 0.598726 -0.2)
(-1.90828 0.598726 0.2)
(-1.95906 0.402597 -0.2)
(-1.95906 0.402597 0.2)
(-1.98974 0.202337 -0.2)
)


// edges:

124
(
(0 1)
(2 3)
(4 0)
(3 5)
(6 4)
(5 7)
(8 6)
(7 9)
(10 8)
(9 11)
(12 10)
(11 13)
(14 12)
(13 15)
(16 14)
(15 17)
(18 16)
(17 19)
(20 18)
(19 21)
(22 20)
(21 23)
(24 22)
(23 25)
(26 24)
(25 27)
(28 26)
(27 29)
(30 28)
(29 31)
(32 30)
(31 33)
(34 32)
(33 35)
(36 34)
(35 37)
(38 36)
(37 39)
(40 38)
(39 41)
(42 40)
(41 43)
(44 42)
(43 45)
(46 44)
(45 47)
(48 46)
(47 49)
(50 48)
(49 51)
(52 50)
(51 53)
(54 52)
(53 55)
(56 54)
(55 57)
(58 56)
(57 59)
(60 58)
(59 61)
(62 60)
(61 63)
(64 62)
(63 65)
(66 64)
(65 67)
(68 66)
(67 69)
(70 68)
(69 71)
(72 70)
(71 73)
(74 72)
(73 75)
(76 74)
(75 77)
(78 76)
(77 79)
(80 78)
(79 81)
(82 80)
(81 83)
(84 82)
(83 85)
(86 84)
(85 87)
(88 86)
(87 89)
(90 88)
(89 91)
(92 90)
(91 93)
(94 92)
(93 95)
(96 94)
(95 97)
(98 96)
(97 99)
(100 98)
(99 101)
(102 100)
(101 103)
(104 102)
(103 105)
(106 104)
(105 107)
(108 106)
(107 109)
(110 108)
(109 111)
(112 110)
(111 113)
(114 112)
(113 115)
(116 114)
(115 117)
(118 116)
(117 119)
(120 118)
(119 121)
(122 120)
(121 123)
(1 122)
(123 2)
)

// * * * * * * * * * * * * * * * * * * * * * * * * * * * * * * * * * * * * * //


// ************************************************************************* //
