/*--------------------------------*- C++ -*----------------------------------*\
| =========                 |                                                 |
| \\      /  F ield         | OpenFOAM: The Open Source CFD Toolbox           |
|  \\    /   O peration     | Version:  2.3.x                                 |
|   \\  /    A nd           | Web:      www.OpenFOAM.org                      |
|    \\/     M anipulation  |                                                 |
\*---------------------------------------------------------------------------*/
FoamFile
{
    version     2.0;
    format      ascii;
    class       featureEdgeMesh;
    location    "constant/triSurface";
    object      wing_5degrees.eMesh;
}
// * * * * * * * * * * * * * * * * * * * * * * * * * * * * * * * * * * * * * //


// points:

96
(
(0.04989 0.00334 0.1)
(0.05 0 0.1)
(0.04989 -0.00334 -0.1)
(0.05 0 -0.1)
(0.04989 0.00334 -0.1)
(0.049 0.00996 -0.1)
(0.049 0.00996 0.1)
(0.04723 0.0164 -0.1)
(0.04723 0.0164 0.1)
(0.04463 0.02255 -0.1)
(0.04463 0.02255 0.1)
(0.04122 0.0283 -0.1)
(0.04122 0.0283 0.1)
(0.03708 0.03354 -0.1)
(0.03708 0.03354 0.1)
(0.03228 0.03818 -0.1)
(0.03228 0.03818 0.1)
(0.0269 0.04214 -0.1)
(0.0269 0.04214 0.1)
(0.02105 0.04535 -0.1)
(0.02105 0.04535 0.1)
(0.01481 0.04776 -0.1)
(0.01481 0.04776 0.1)
(0.00832 0.0493 -0.1)
(0.00832 0.0493 0.1)
(0.00167 0.04997 -0.1)
(0.00167 0.04997 0.1)
(-0.005 0.04975 -0.1)
(-0.005 0.04975 0.1)
(-0.01159 0.04864 -0.1)
(-0.01159 0.04864 0.1)
(-0.01797 0.04666 -0.1)
(-0.01797 0.04666 0.1)
(-0.02403 0.04385 -0.1)
(-0.02403 0.04385 0.1)
(-0.02966 0.04025 -0.1)
(-0.02966 0.04025 0.1)
(-0.03476 0.03594 -0.1)
(-0.03476 0.03594 0.1)
(-0.03924 0.03099 -0.1)
(-0.03924 0.03099 0.1)
(-0.04302 0.02548 -0.1)
(-0.04302 0.02548 0.1)
(-0.04603 0.01952 -0.1)
(-0.04603 0.01952 0.1)
(-0.04822 0.01321 -0.1)
(-0.04822 0.01321 0.1)
(-0.04955 0.00666 -0.1)
(-0.04955 0.00666 0.1)
(-0.05 0 -0.1)
(-0.05 0 0.1)
(-0.04955 -0.00666 -0.1)
(-0.04955 -0.00666 0.1)
(-0.04822 -0.01321 -0.1)
(-0.04822 -0.01321 0.1)
(-0.04603 -0.01952 -0.1)
(-0.04603 -0.01952 0.1)
(-0.04302 -0.02548 -0.1)
(-0.04302 -0.02548 0.1)
(-0.03924 -0.03099 -0.1)
(-0.03924 -0.03099 0.1)
(-0.03476 -0.03594 -0.1)
(-0.03476 -0.03594 0.1)
(-0.02966 -0.04025 -0.1)
(-0.02966 -0.04025 0.1)
(-0.02403 -0.04385 -0.1)
(-0.02403 -0.04385 0.1)
(-0.01797 -0.04666 -0.1)
(-0.01797 -0.04666 0.1)
(-0.01159 -0.04864 -0.1)
(-0.01159 -0.04864 0.1)
(-0.005 -0.04975 -0.1)
(-0.005 -0.04975 0.1)
(0.00167 -0.04997 -0.1)
(0.00167 -0.04997 0.1)
(0.00832 -0.0493 -0.1)
(0.00832 -0.0493 0.1)
(0.01481 -0.04776 -0.1)
(0.01481 -0.04776 0.1)
(0.02105 -0.04535 -0.1)
(0.02105 -0.04535 0.1)
(0.0269 -0.04214 -0.1)
(0.0269 -0.04214 0.1)
(0.03228 -0.03818 -0.1)
(0.03228 -0.03818 0.1)
(0.03708 -0.03354 -0.1)
(0.03708 -0.03354 0.1)
(0.04122 -0.0283 -0.1)
(0.04122 -0.0283 0.1)
(0.04463 -0.02255 -0.1)
(0.04463 -0.02255 0.1)
(0.04723 -0.0164 -0.1)
(0.04723 -0.0164 0.1)
(0.049 -0.00996 -0.1)
(0.049 -0.00996 0.1)
(0.04989 -0.00334 0.1)
)


// edges:

96
(
(0 1)
(2 3)
(3 4)
(4 5)
(6 0)
(5 7)
(8 6)
(7 9)
(10 8)
(9 11)
(12 10)
(11 13)
(14 12)
(13 15)
(16 14)
(15 17)
(18 16)
(17 19)
(20 18)
(19 21)
(22 20)
(21 23)
(24 22)
(23 25)
(26 24)
(25 27)
(28 26)
(27 29)
(30 28)
(29 31)
(32 30)
(31 33)
(34 32)
(33 35)
(36 34)
(35 37)
(38 36)
(37 39)
(40 38)
(39 41)
(42 40)
(41 43)
(44 42)
(43 45)
(46 44)
(45 47)
(48 46)
(47 49)
(50 48)
(49 51)
(52 50)
(51 53)
(54 52)
(53 55)
(56 54)
(55 57)
(58 56)
(57 59)
(60 58)
(59 61)
(62 60)
(61 63)
(64 62)
(63 65)
(66 64)
(65 67)
(68 66)
(67 69)
(70 68)
(69 71)
(72 70)
(71 73)
(74 72)
(73 75)
(76 74)
(75 77)
(78 76)
(77 79)
(80 78)
(79 81)
(82 80)
(81 83)
(84 82)
(83 85)
(86 84)
(85 87)
(88 86)
(87 89)
(90 88)
(89 91)
(92 90)
(91 93)
(94 92)
(93 2)
(95 94)
(1 95)
)

// * * * * * * * * * * * * * * * * * * * * * * * * * * * * * * * * * * * * * //


// ************************************************************************* //
