/*--------------------------------*- C++ -*----------------------------------*\
| =========                 |                                                 |
| \\      /  F ield         | OpenFOAM: The Open Source CFD Toolbox           |
|  \\    /   O peration     | Version:  2.3.x                                 |
|   \\  /    A nd           | Web:      www.OpenFOAM.org                      |
|    \\/     M anipulation  |                                                 |
\*---------------------------------------------------------------------------*/
FoamFile
{
    version     2.0;
    format      ascii;
    class       dictionary;
    object      createPatchDict;
}

// * * * * * * * * * * * * * * * * * * * * * * * * * * * * * * * * * * * * * //
pointSync false;


patches
(
    {
        //- Master side patch
        name           AMI1;  //outerCylinder;
        patchInfo
        {
            type            cyclicAMI;
            matchTolerance  0.0001;
            neighbourPatch  AMI2; //innerCylinder;
            transform       noOrdering;
        }
        constructFrom patches;
        patches (outerCylinder);
    }

    {
        //- Slave side patch
        name            AMI2; //innerCylinder;
        patchInfo
        {
            type            cyclicAMI;
            matchTolerance  0.0001;
            neighbourPatch  AMI1; //outerCylinder;
            transform       noOrdering;
        }
        constructFrom patches;
        patches (innerCylinder);
    }
);
// ************************************************************************* //
